Version 4
SHEET 1 1424 680
WIRE 448 -96 32 -96
WIRE 416 -48 160 -48
WIRE 32 16 32 -96
WIRE 720 48 672 48
WIRE 768 48 720 48
WIRE 816 48 768 48
WIRE 864 48 816 48
WIRE 912 48 864 48
WIRE 976 48 912 48
WIRE 1024 48 976 48
WIRE 1072 48 1024 48
WIRE 1120 48 1072 48
WIRE 1152 48 1120 48
WIRE 1360 48 1152 48
WIRE 416 176 416 -48
WIRE 448 176 448 -96
WIRE 672 192 672 128
WIRE 672 192 592 192
WIRE 1232 192 672 192
WIRE 720 224 720 128
WIRE 720 224 592 224
WIRE 1232 224 720 224
WIRE 768 256 768 128
WIRE 768 256 592 256
WIRE 1232 256 768 256
WIRE 816 288 816 128
WIRE 816 288 592 288
WIRE 1232 288 816 288
WIRE 864 320 864 128
WIRE 864 320 592 320
WIRE 1232 320 864 320
WIRE 912 352 912 128
WIRE 912 352 592 352
WIRE 1232 352 912 352
WIRE 976 384 976 128
WIRE 976 384 592 384
WIRE 1232 384 976 384
WIRE -144 400 -144 368
WIRE 1024 416 1024 128
WIRE 1024 416 592 416
WIRE 1232 416 1024 416
WIRE 1072 448 1072 128
WIRE 1072 448 592 448
WIRE 1232 448 1072 448
WIRE 1120 480 1120 128
WIRE 1120 480 592 480
WIRE 1232 480 1120 480
WIRE 1152 512 1152 128
WIRE 1152 512 592 512
WIRE 1232 512 1152 512
FLAG 160 32 0
FLAG 32 96 0
FLAG -144 480 0
FLAG 1360 128 0
SYMBOL ProgMem 496 352 R0
WINDOW 0 8 -184 Bottom 2
SYMATTR InstName X1
SYMBOL voltage 160 -64 R0
SYMATTR InstName V1
SYMATTR Value 3.3
SYMBOL voltage 32 0 R0
SYMATTR InstName V2
SYMATTR Value PULSE(0 3.3 1m 0 0 1u 1m 1)
SYMBOL voltage -144 384 R0
SYMATTR InstName V3
SYMATTR Value PULSE(0 3.3 0 0 0 330u 660u)
SYMBOL res 656 32 R0
SYMATTR InstName R1
SYMATTR Value 150
SYMBOL voltage 1360 32 R0
SYMATTR InstName V4
SYMATTR Value 3.3
SYMBOL res 704 32 R0
SYMATTR InstName R2
SYMATTR Value 150
SYMBOL res 752 32 R0
SYMATTR InstName R3
SYMATTR Value 150
SYMBOL res 800 32 R0
SYMATTR InstName R4
SYMATTR Value 150
SYMBOL res 848 32 R0
SYMATTR InstName R5
SYMATTR Value 150
SYMBOL res 896 32 R0
SYMATTR InstName R6
SYMATTR Value 150
SYMBOL res 960 32 R0
SYMATTR InstName R7
SYMATTR Value 150
SYMBOL res 1008 32 R0
SYMATTR InstName R8
SYMATTR Value 150
SYMBOL res 1056 32 R0
SYMATTR InstName R9
SYMATTR Value 150
SYMBOL res 1104 32 R0
SYMATTR InstName R10
SYMATTR Value 150
SYMBOL res 1136 32 R0
SYMATTR InstName R11
SYMATTR Value 150
TEXT 264 0 Left 2 !.tran 10m
