Version 4
SHEET 1 880 680
WIRE 320 112 -224 112
WIRE -16 224 -112 224
WIRE -224 256 -224 112
WIRE -112 256 -112 224
WIRE 320 256 320 112
WIRE -16 288 -16 224
WIRE 256 288 -16 288
WIRE 512 288 400 288
WIRE 256 320 32 320
WIRE 512 320 400 320
WIRE -224 352 -224 336
WIRE -112 352 -112 336
WIRE 32 416 32 320
WIRE 32 512 32 496
FLAG -112 352 0
FLAG -224 352 0
FLAG 32 512 0
SYMBOL Comparator 320 304 R0
SYMATTR InstName X1
SYMBOL voltage -224 240 R0
SYMATTR InstName V1
SYMATTR Value 12
SYMBOL voltage -112 240 R0
SYMATTR InstName V2
SYMATTR Value PULSE(0 12 0 1 1n 1n 1)
SYMBOL voltage 32 400 R0
SYMATTR InstName V3
SYMATTR Value 3
TEXT -112 152 Left 2 !.tran 1000ms,UIC
