Version 4
SHEET 1 880 680
WIRE -688 112 -1152 112
WIRE -1152 128 -1152 112
WIRE -864 160 -960 160
WIRE -736 160 -864 160
WIRE -688 160 -688 112
WIRE -624 176 -656 176
WIRE -736 192 -784 192
WIRE -784 208 -784 192
WIRE -960 240 -960 160
WIRE -784 240 -784 208
FLAG -960 320 0
FLAG -784 320 0
FLAG -1152 208 0
FLAG -624 176 OUT
FLAG -864 160 IN1
FLAG -784 208 IN2
SYMBOL voltage -1152 112 R0
SYMATTR InstName V4
SYMATTR Value 12
SYMBOL voltage -960 224 R0
SYMATTR InstName V5
SYMATTR Value SINE(5 5 1)
SYMBOL voltage -784 224 R0
SYMATTR InstName V6
SYMATTR Value SINE(5 5 6)
SYMBOL Comparator -656 176 R0
SYMATTR InstName X1
TEXT -1232 -8 Left 2 !.tran 2
