Version 4
SHEET 1 932 1184
WIRE 352 -144 240 -144
WIRE 624 -144 352 -144
WIRE 240 -96 240 -144
WIRE 624 -96 624 -144
WIRE 784 -80 752 -80
WIRE 784 -48 752 -48
WIRE 592 -32 560 -32
WIRE 784 -16 752 -16
WIRE 784 16 752 16
WIRE 352 48 352 -144
WIRE 368 48 352 48
WIRE 784 48 752 48
WIRE 368 80 256 80
WIRE 560 80 560 -32
WIRE 560 80 496 80
WIRE 784 80 752 80
WIRE 256 96 256 80
WIRE 784 112 752 112
WIRE 784 144 752 144
WIRE 784 176 752 176
FLAG 240 -16 0
FLAG 256 176 0
SYMBOL voltage 240 -112 R0
SYMATTR InstName V1
SYMATTR Value 12
SYMBOL voltage 256 80 R0
WINDOW 3 312 145 Right 2
SYMATTR Value PULSE(0 5 10m 10n 10n 119.9ms 120ms 2)
SYMATTR InstName V2
SYMBOL RampGen 416 80 R0
SYMATTR InstName RAMPGEN
SYMBOL UART-Rx-Sequencer 640 32 R0
SYMATTR InstName SEQUENCER
TEXT 256 -176 Left 2 !.tran 250ms, UIC
