Version 4
SHEET 1 880 680
WIRE -160 160 -160 144
WIRE 112 160 -160 160
WIRE 112 176 112 160
WIRE -160 192 -160 160
WIRE 256 192 240 192
WIRE 256 224 240 224
WIRE 256 256 240 256
WIRE -160 288 -160 272
WIRE 256 288 240 288
WIRE 256 320 240 320
WIRE 256 352 240 352
WIRE 256 384 240 384
WIRE 80 416 -160 416
WIRE 256 416 240 416
WIRE -160 464 -160 416
FLAG -160 288 0
FLAG -160 144 V+
FLAG -160 544 0
SYMBOL UART-Rx-Sequencer 128 304 R0
WINDOW 0 0 -136 Bottom 2
SYMATTR InstName RXSEQ
SYMBOL voltage -160 176 R0
SYMATTR InstName V1
SYMATTR Value 12
SYMBOL voltage -160 448 R0
SYMATTR InstName V2
SYMATTR Value PULSE(0 12 0 1n 1n 5ms 50ms)
TEXT -240 80 Left 2 !.tran 250ms,UIC
