Version 4
SHEET 1 880 680
WIRE -496 192 -496 176
WIRE -208 224 -304 224
FLAG -496 272 0
FLAG -496 176 V+
SYMBOL UARTfaker -352 224 R0
SYMATTR InstName 300BAUD 0xAA
SYMBOL voltage -496 176 R0
SYMATTR InstName V1
SYMATTR Value 12
TEXT -528 120 Left 2 !.tran 90ms
