Version 4
SHEET 1 1972 1100
WIRE 288 128 224 128
WIRE 0 144 0 128
WIRE 288 192 224 192
WIRE 912 208 864 208
WIRE 0 240 0 224
WIRE 912 240 864 240
WIRE 288 256 288 192
WIRE 368 256 288 256
WIRE 672 256 368 256
WIRE 912 272 864 272
WIRE 608 304 0 304
WIRE 912 304 864 304
WIRE 0 320 0 304
WIRE 912 336 864 336
WIRE 912 368 864 368
WIRE 912 400 864 400
WIRE 608 432 608 304
WIRE 672 432 608 432
WIRE 912 432 864 432
WIRE 672 464 0 464
WIRE 912 464 864 464
WIRE 0 496 0 464
FLAG 0 240 0
FLAG 0 128 V+
FLAG 0 576 0
FLAG 368 256 RX
FLAG 144 128 v+
FLAG 144 192 v+
FLAG 144 256 v+
FLAG 0 400 0
FLAG 672 208 V+
FLAG 912 208 D0
FLAG 912 240 D1
FLAG 912 272 D2
FLAG 912 304 D3
FLAG 912 336 D4
FLAG 912 368 D5
FLAG 912 400 D6
FLAG 912 432 D7
FLAG 912 464 RDY
SYMBOL voltage 0 128 R0
SYMATTR InstName V1
SYMATTR Value 5
SYMBOL voltage 0 480 R0
WINDOW 3 347 126 Right 2
SYMATTR Value PULSE(0 5 40ms 10n 10n 9999 9999 1)
SYMATTR InstName V2
SYMBOL UARTfaker-1 176 128 R0
SYMATTR InstName X3
SYMBOL UARTfaker-2 176 192 R0
SYMATTR InstName X4
SYMBOL UARTfaker-Glitch 176 256 R0
SYMATTR InstName X5
SYMBOL voltage 0 304 R0
WINDOW 3 347 126 Right 2
SYMATTR Value PULSE(0 5 0 10n 10n 110m 111m 1)
SYMATTR InstName V3
SYMBOL UART-RX 768 336 R0
SYMATTR InstName UART-RX
TEXT 600 80 Left 2 !.tran 120ms,UIC
