Version 4
SHEET 1 880 680
WIRE -32 -16 -32 -32
WIRE -32 -16 -144 -16
WIRE 64 -16 -32 -16
WIRE 416 -16 64 -16
WIRE -144 16 -144 -16
WIRE 64 16 64 -16
WIRE -48 64 -80 64
WIRE 0 64 -48 64
WIRE 416 64 416 -16
WIRE 240 112 64 112
WIRE 352 112 320 112
WIRE -144 128 -144 112
WIRE -48 128 -48 64
WIRE -48 128 -144 128
WIRE 64 128 64 112
WIRE -208 176 -256 176
WIRE 160 176 128 176
WIRE 416 176 416 160
WIRE 464 176 416 176
WIRE -144 240 -144 224
WIRE -48 240 -144 240
WIRE 64 240 64 224
WIRE 64 240 -48 240
WIRE 160 240 160 176
WIRE -48 256 -48 240
WIRE 160 368 160 320
WIRE 160 368 -256 368
FLAG -48 336 0
FLAG 416 256 0
FLAG 464 176 /OUT
IOPIN 464 176 Out
FLAG -32 -32 V+
IOPIN -32 -32 In
FLAG -256 176 IN2
IOPIN -256 176 In
FLAG -256 368 IN1
IOPIN -256 368 In
SYMBOL npn 128 128 M0
SYMATTR InstName Q1
SYMATTR Value BC547B
SYMBOL pnp -80 112 R180
SYMATTR InstName Q2
SYMATTR Value BC557B
SYMBOL res -32 240 M0
SYMATTR InstName R1
SYMATTR Value 10k
SYMBOL npn -208 128 R0
SYMATTR InstName Q3
SYMATTR Value BC547B
SYMBOL res 432 160 M0
SYMATTR InstName R2
SYMATTR Value 1K
SYMBOL res 224 96 M90
WINDOW 0 0 56 VBottom 2
WINDOW 3 32 56 VTop 2
SYMATTR InstName R3
SYMATTR Value 10k
SYMBOL pnp 0 112 M180
SYMATTR InstName Q4
SYMATTR Value BC557B
SYMBOL pnp 352 160 M180
SYMATTR InstName Q5
SYMATTR Value BC557B
SYMBOL res 176 224 M0
SYMATTR InstName R4
SYMATTR Value 10k
