Version 4
SHEET 1 988 752
WIRE 336 48 -16 48
WIRE 432 48 432 32
WIRE 432 48 336 48
WIRE 544 48 432 48
WIRE 336 80 336 48
WIRE 544 80 544 48
WIRE -16 128 -16 48
WIRE 448 128 400 128
WIRE 480 128 448 128
WIRE 80 176 48 176
WIRE 192 176 160 176
WIRE 336 176 192 176
WIRE 336 192 336 176
WIRE 448 192 448 128
WIRE 544 192 544 176
WIRE 544 192 448 192
WIRE -16 240 -16 224
WIRE -16 240 -64 240
WIRE 272 240 240 240
WIRE 656 240 608 240
WIRE 336 304 336 288
WIRE 448 304 336 304
WIRE 544 304 544 288
WIRE 544 304 448 304
WIRE 448 320 448 304
WIRE 240 352 240 320
WIRE 192 384 192 176
WIRE 192 384 -64 384
FLAG 448 400 0
FLAG -16 320 0
FLAG -64 240 /OUT
IOPIN -64 240 Out
FLAG -64 384 OUT
IOPIN -64 384 Out
FLAG 240 352 IN1
IOPIN 240 352 In
FLAG 656 240 IN2
IOPIN 656 240 In
FLAG 432 32 V+
IOPIN 432 32 In
SYMBOL npn 272 192 R0
SYMATTR InstName Q1
SYMATTR Value BC547B
SYMBOL pnp 480 176 M180
SYMATTR InstName Q2
SYMATTR Value BC557B
SYMBOL pnp 400 80 M0
SYMATTR InstName Q3
SYMATTR Value BC557B
SYMBOL res 432 304 R0
SYMATTR InstName R1
SYMATTR Value 1k
SYMBOL res 224 224 R0
SYMATTR InstName R2
SYMATTR Value 1k
SYMBOL npn 608 192 M0
SYMATTR InstName Q4
SYMATTR Value BC547B
SYMBOL pnp 48 128 M0
SYMATTR InstName Q5
SYMATTR Value BC557C
SYMBOL res -32 224 R0
SYMATTR InstName R3
SYMATTR Value 1K
SYMBOL res 176 160 R90
WINDOW 0 0 56 VBottom 2
WINDOW 3 32 56 VTop 2
SYMATTR InstName R4
SYMATTR Value 1k
TEXT -112 -8 Left 6 ;COMPARATOR
