Version 4
SHEET 1 880 680
WIRE 160 224 96 224
WIRE 320 224 304 224
WIRE 304 240 304 224
WIRE 304 240 240 240
WIRE 416 240 400 240
WIRE 464 240 416 240
WIRE 128 256 96 256
WIRE 160 256 128 256
WIRE 320 320 320 256
WIRE 400 320 320 320
WIRE 240 336 240 240
WIRE 240 336 144 336
WIRE 416 368 416 240
WIRE 416 368 320 368
WIRE 144 448 144 336
WIRE 160 448 144 448
WIRE 320 448 320 368
WIRE 304 464 240 464
WIRE 400 464 400 320
WIRE 464 464 400 464
WIRE 128 480 128 256
WIRE 160 480 128 480
WIRE 304 480 304 464
WIRE 320 480 304 480
FLAG 352 416 v+
FLAG 352 192 v+
FLAG 192 416 v+
IOPIN 192 416 In
FLAG 192 192 v+
FLAG 192 288 v-
FLAG 352 288 v-
FLAG 352 512 v-
FLAG 192 512 v-
IOPIN 192 512 In
FLAG 464 464 /Q
IOPIN 464 464 Out
FLAG 464 240 Q
IOPIN 464 240 Out
FLAG 96 224 D
IOPIN 96 224 In
FLAG 96 256 clk
IOPIN 96 256 In
SYMBOL NAND2 352 176 R0
SYMATTR InstName X1
SYMBOL NAND2 352 400 R0
SYMATTR InstName X2
SYMBOL NAND2 192 176 R0
SYMATTR InstName X3
SYMBOL NAND2 192 400 R0
SYMATTR InstName X4
