Version 4
SHEET 1 880 680
WIRE 128 176 96 176
WIRE 160 224 96 224
WIRE 320 224 304 224
WIRE 304 240 304 224
WIRE 304 240 240 240
WIRE 416 240 400 240
WIRE 464 240 416 240
WIRE 112 256 96 256
WIRE 160 256 112 256
WIRE 240 288 240 240
WIRE 240 288 144 288
WIRE 320 288 320 256
WIRE 400 288 320 288
WIRE 416 304 416 240
WIRE 416 304 320 304
WIRE 320 368 320 304
WIRE 144 384 144 288
WIRE 160 384 144 384
WIRE 400 384 400 288
WIRE 464 384 400 384
WIRE 320 400 240 400
WIRE 112 416 112 256
WIRE 160 416 112 416
FLAG 352 192 v+
FLAG 96 176 v+
IOPIN 96 176 In
FLAG 192 192 v+
FLAG 464 384 /Q
IOPIN 464 384 Out
FLAG 464 240 Q
IOPIN 464 240 Out
FLAG 96 224 D
IOPIN 96 224 In
FLAG 96 256 clk
IOPIN 96 256 In
FLAG 128 176 V+
FLAG 192 352 V+
FLAG 352 336 V+
SYMBOL NAND2 352 240 R0
SYMATTR InstName X1
SYMBOL NAND2 352 384 R0
SYMATTR InstName X2
SYMBOL NAND2 192 240 R0
SYMATTR InstName X3
SYMBOL NAND2 192 400 R0
SYMATTR InstName X4
