Version 4
SHEET 1 880 680
WIRE -112 64 -160 64
WIRE -80 112 -160 112
WIRE -32 112 -80 112
WIRE 368 112 320 112
WIRE -32 144 -160 144
WIRE 112 144 80 144
WIRE 368 144 288 144
WIRE 512 144 480 144
WIRE -80 240 -80 112
WIRE -32 240 -80 240
WIRE 320 240 320 112
WIRE 368 240 320 240
WIRE -32 272 -160 272
WIRE 112 272 80 272
WIRE 368 272 288 272
WIRE 512 272 480 272
WIRE -80 368 -80 240
WIRE -32 368 -80 368
WIRE 320 368 320 240
WIRE 368 368 320 368
WIRE -32 400 -160 400
WIRE 112 400 80 400
WIRE 368 400 288 400
WIRE 512 400 480 400
WIRE -80 496 -80 368
WIRE -32 496 -80 496
WIRE 320 496 320 368
WIRE 368 496 320 496
WIRE -32 528 -160 528
WIRE 112 528 80 528
WIRE 368 528 288 528
WIRE 512 528 480 528
WIRE -80 576 -80 496
WIRE 320 576 320 496
WIRE 320 576 -80 576
FLAG -32 80 V+
FLAG -32 208 V+
FLAG -32 336 V+
FLAG -32 464 V+
FLAG 368 80 V+
FLAG 368 208 V+
FLAG 368 336 V+
FLAG 368 464 V+
FLAG -160 112 D
IOPIN -160 112 In
FLAG -112 64 V+
FLAG -160 64 V+
IOPIN -160 64 In
FLAG 512 528 Q7
IOPIN 512 528 Out
FLAG 512 400 Q6
IOPIN 512 400 Out
FLAG 512 272 Q5
IOPIN 512 272 Out
FLAG 512 144 Q4
IOPIN 512 144 Out
FLAG 112 144 Q0
IOPIN 112 144 Out
FLAG 112 272 Q1
IOPIN 112 272 Out
FLAG 112 400 Q2
IOPIN 112 400 Out
FLAG 112 528 Q3
IOPIN 112 528 Out
FLAG -160 144 CLK0
IOPIN -160 144 In
FLAG -160 272 CLK1
IOPIN -160 272 In
FLAG -160 400 CLK2
IOPIN -160 400 In
FLAG -160 528 CLK3
IOPIN -160 528 In
FLAG 288 144 CLK4
IOPIN 288 144 In
FLAG 288 272 CLK5
IOPIN 288 272 In
FLAG 288 400 CLK6
IOPIN 288 400 In
FLAG 288 528 CLK7
IOPIN 288 528 In
SYMBOL D-LATCH 16 128 R0
SYMATTR InstName X1
SYMBOL D-LATCH 16 256 R0
SYMATTR InstName X2
SYMBOL D-LATCH 16 384 R0
SYMATTR InstName X3
SYMBOL D-LATCH 16 512 R0
SYMATTR InstName X4
SYMBOL D-LATCH 416 128 R0
SYMATTR InstName X5
SYMBOL D-LATCH 416 256 R0
SYMATTR InstName X6
SYMBOL D-LATCH 416 384 R0
SYMATTR InstName X7
SYMBOL D-LATCH 416 512 R0
SYMATTR InstName X8
