Version 4
SHEET 1 1276 1184
WIRE 832 -64 832 -96
WIRE 912 -64 832 -64
WIRE 1104 -64 912 -64
WIRE 912 -32 912 -64
WIRE 832 32 832 -64
WIRE 1184 48 1024 48
WIRE 912 80 912 48
WIRE 912 80 896 80
WIRE 1104 96 1104 -64
WIRE 896 128 896 80
WIRE 832 176 832 128
WIRE 704 192 688 192
WIRE 784 192 768 192
WIRE 688 208 688 192
WIRE 1184 208 1184 48
WIRE 832 224 832 176
WIRE 928 224 896 224
WIRE 1024 224 1024 48
WIRE 1024 224 928 224
WIRE 1104 224 1104 192
WIRE 928 240 928 224
WIRE 544 256 512 256
WIRE 784 368 784 192
WIRE 880 368 784 368
WIRE 1024 368 1024 224
WIRE 1024 368 944 368
FLAG 688 304 0
FLAG 512 256 /CLR
IOPIN 512 256 In
FLAG 832 304 0
FLAG 832 -96 V+
IOPIN 832 -96 In
FLAG 928 304 0
FLAG 1104 304 0
FLAG 1184 208 OUT
IOPIN 1184 208 Out
SYMBOL npn 624 208 R0
SYMATTR InstName Q5
SYMATTR Value BC547B
SYMBOL res 640 240 R90
WINDOW 0 0 56 VBottom 2
WINDOW 3 32 56 VTop 2
SYMATTR InstName R4
SYMATTR Value 10k
SYMBOL pnp 832 224 M180
SYMATTR InstName Q6
SYMATTR Value BC557B
SYMBOL pnp 896 128 R180
SYMATTR InstName Q7
SYMATTR Value BC557B
SYMBOL res 816 208 R0
SYMATTR InstName R6
SYMATTR Value 1k
SYMBOL cap 912 240 R0
SYMATTR InstName C2
SYMATTR Value 1µ
SYMBOL res 896 -48 R0
SYMATTR InstName R7
SYMATTR Value 9k
SYMBOL npn 1040 96 R0
SYMATTR InstName Q8
SYMATTR Value BC547B
SYMBOL res 1088 208 R0
SYMATTR InstName R8
SYMATTR Value 100k
SYMBOL diode 768 176 R90
WINDOW 0 0 32 VBottom 2
WINDOW 3 32 32 VTop 2
SYMATTR InstName D1
SYMATTR Value 1N4148
SYMBOL diode 944 352 R90
WINDOW 0 0 32 VBottom 2
WINDOW 3 32 32 VTop 2
SYMATTR InstName D2
SYMATTR Value 1N4148
