Version 4
SHEET 1 932 1184
WIRE -288 -32 -288 -80
WIRE -128 -32 -288 -32
WIRE 0 -32 -128 -32
WIRE 336 -32 0 -32
WIRE -288 0 -288 -32
WIRE 32 0 -64 0
WIRE 160 0 96 0
WIRE 224 0 160 0
WIRE 272 0 224 0
WIRE 0 32 0 -32
WIRE -128 64 -128 -32
WIRE 336 64 336 -32
WIRE 160 96 160 0
WIRE -288 112 -288 80
WIRE -192 112 -288 112
WIRE 272 112 272 0
WIRE 0 144 0 112
WIRE 96 144 0 144
WIRE -128 176 -128 160
WIRE -64 176 -64 0
WIRE -64 176 -128 176
WIRE 0 176 0 144
WIRE 336 176 336 160
WIRE 416 176 336 176
WIRE 336 192 336 176
WIRE -128 208 -128 176
WIRE 160 224 160 192
WIRE 160 224 64 224
WIRE -288 240 -288 112
WIRE -432 288 -544 288
WIRE 160 304 160 224
WIRE 0 384 0 272
FLAG 336 272 0
FLAG 224 64 0
FLAG 160 384 0
FLAG 0 384 0
FLAG -128 288 0
FLAG -288 336 0
FLAG -288 -80 V+
IOPIN -288 -80 In
FLAG -544 288 /CLR
IOPIN -544 288 In
FLAG 416 176 OUT
IOPIN 416 176 Out
SYMBOL npn 272 64 R0
SYMATTR InstName Q3
SYMATTR Value BC547B
SYMBOL res 320 176 R0
SYMATTR InstName R3
SYMATTR Value 100k
SYMBOL cap 208 0 R0
SYMATTR InstName C1
SYMATTR Value 100n
SYMBOL res -16 16 R0
SYMATTR InstName R1
SYMATTR Value 10k
SYMBOL res 144 288 R0
SYMATTR InstName R2
SYMATTR Value 40k
SYMBOL npn 96 96 R0
SYMATTR InstName Q1
SYMATTR Value BC547B
SYMBOL npn 64 176 M0
SYMATTR InstName Q2
SYMATTR Value BC547B
SYMBOL diode 32 16 R270
WINDOW 0 32 32 VTop 2
WINDOW 3 0 32 VBottom 2
SYMATTR InstName D1
SYMATTR Value 1N4148
SYMBOL npn -192 64 R0
SYMATTR InstName Q4
SYMATTR Value BC547B
SYMBOL res -144 192 R0
SYMATTR InstName R5
SYMATTR Value 10k
SYMBOL res -304 -16 R0
SYMATTR InstName R15
SYMATTR Value 10k
SYMBOL npn -352 240 R0
SYMATTR InstName Q5
SYMATTR Value BC547B
SYMBOL res -336 272 R90
WINDOW 0 0 56 VBottom 2
WINDOW 3 32 56 VTop 2
SYMATTR InstName R4
SYMATTR Value 10k
TEXT -208 -112 Left 2 ;Needs at least 1mS pulse to reset fully
