Version 4
SHEET 1 1972 1096
WIRE 864 192 864 176
WIRE 1056 208 992 208
WIRE 592 224 592 208
WIRE 608 224 592 224
WIRE 1056 240 992 240
WIRE 368 256 320 256
WIRE 416 256 368 256
WIRE 608 256 560 256
WIRE 784 256 736 256
WIRE 832 256 784 256
WIRE 512 272 496 272
WIRE 560 272 560 256
WIRE 560 272 512 272
WIRE 1056 272 992 272
WIRE 1056 304 992 304
WIRE 1056 336 992 336
WIRE 224 352 224 336
WIRE 416 352 416 288
WIRE 496 352 416 352
WIRE 1056 368 992 368
WIRE 512 400 512 272
WIRE 512 400 416 400
WIRE 1056 400 992 400
WIRE 1056 432 992 432
WIRE 224 448 224 432
WIRE 1008 464 992 464
WIRE 1056 464 1008 464
WIRE 416 480 416 400
WIRE 288 496 224 496
WIRE 416 496 288 496
WIRE 496 496 496 352
WIRE 416 576 416 512
WIRE 544 576 416 576
WIRE 1008 576 1008 464
WIRE 1008 576 544 576
FLAG 224 448 0
FLAG 224 336 V+
FLAG 448 448 v+
FLAG 448 224 v+
FLAG 288 496 MASTERRESET
FLAG 864 176 V+
FLAG 544 576 STOP
FLAG 224 576 0
FLAG 592 208 V+
FLAG 368 256 RX
FLAG 784 256 RAMP
SYMBOL UART-Rx-Sequencer 880 320 R0
WINDOW 0 72 -134 Bottom 2
SYMATTR InstName SEQUENCER
SYMBOL voltage 224 336 R0
SYMATTR InstName V1
SYMATTR Value 12
SYMBOL UARTfaker 272 256 R0
SYMATTR InstName FAKE_TX
SYMBOL voltage 224 480 R0
WINDOW 3 347 126 Right 2
SYMATTR Value PULSE(0 12 5ms 10n 10n 9999 9999 1)
SYMATTR InstName V2
SYMBOL RampGen 656 256 R0
SYMATTR InstName RAMPGEN
SYMBOL NAND3 448 496 R0
SYMATTR InstName X1
SYMBOL NAND2 448 272 R0
SYMATTR InstName X2
TEXT 552 96 Left 2 !.tran 180ms,UIC
TEXT 224 120 Left 6 ;UART-RX
