Version 4
SHEET 1 1972 1096
WIRE 288 128 224 128
WIRE 1312 128 400 128
WIRE 1584 128 1568 128
WIRE 1312 160 1248 160
WIRE 288 192 288 128
WIRE 288 192 224 192
WIRE 944 192 944 176
WIRE 1248 192 1248 160
WIRE 1248 192 1120 192
WIRE 1120 208 1120 192
WIRE 1120 208 1072 208
WIRE 1136 208 1120 208
WIRE 592 224 592 208
WIRE 608 224 592 224
WIRE 1136 240 1072 240
WIRE 288 256 288 192
WIRE 288 256 224 256
WIRE 368 256 288 256
WIRE 400 256 400 128
WIRE 400 256 368 256
WIRE 416 256 400 256
WIRE 608 256 560 256
WIRE 912 256 736 256
WIRE 512 272 496 272
WIRE 1136 272 1072 272
WIRE 1136 304 1072 304
WIRE 1136 336 1072 336
WIRE 224 352 224 336
WIRE 416 352 416 288
WIRE 496 352 416 352
WIRE 1136 368 1072 368
WIRE 512 400 512 272
WIRE 512 400 416 400
WIRE 1136 400 1072 400
WIRE 1136 432 1072 432
WIRE 224 448 224 432
WIRE 1104 464 1072 464
WIRE 1136 464 1104 464
WIRE 416 480 416 400
WIRE 288 496 224 496
WIRE 304 496 288 496
WIRE 416 496 304 496
WIRE 416 512 384 512
WIRE 496 512 496 352
WIRE 560 512 560 256
WIRE 560 512 496 512
WIRE 416 528 400 528
WIRE 400 576 400 528
WIRE 544 576 400 576
WIRE 688 576 544 576
WIRE 1104 576 1104 464
WIRE 1104 576 688 576
WIRE 384 592 384 512
WIRE 1584 592 1584 128
WIRE 1584 592 384 592
WIRE 688 704 688 576
WIRE 768 704 688 704
WIRE 864 720 848 720
WIRE 960 720 864 720
WIRE 768 736 752 736
WIRE 752 768 752 736
WIRE 848 768 752 768
WIRE 864 784 864 720
WIRE 864 784 752 784
WIRE 752 864 752 784
WIRE 768 864 752 864
WIRE 304 880 304 496
WIRE 768 880 304 880
WIRE 848 880 848 768
WIRE 768 896 704 896
WIRE 704 944 704 896
WIRE 704 944 224 944
WIRE 960 944 704 944
FLAG 224 448 0
FLAG 224 336 V+
FLAG 448 448 v+
FLAG 448 224 v+
FLAG 288 496 MASTERRESET
FLAG 944 176 V+
FLAG 544 576 DONE
FLAG 224 576 0
FLAG 592 208 V+
FLAG 368 256 RX
FLAG 1136 240 BIT0
FLAG 1136 272 BIT1
FLAG 1136 304 BIT2
FLAG 1136 336 BIT3
FLAG 1136 368 BIT4
FLAG 1136 400 BIT5
FLAG 1136 432 BIT6
FLAG 1136 464 BIT7
FLAG 1312 96 v+
FLAG 800 672 V+
FLAG 800 832 V+
FLAG 960 720 READY
FLAG 144 128 v+
FLAG 144 192 v+
FLAG 144 256 v+
FLAG 1136 208 startbit
FLAG 960 944 ACK
FLAG 224 1024 0
SYMBOL UART-Rx-Sequencer 960 320 R0
WINDOW 0 72 -134 Bottom 2
SYMATTR InstName SEQUENCER
SYMBOL voltage 224 336 R0
SYMATTR InstName V1
SYMATTR Value 5
SYMBOL voltage 224 480 R0
WINDOW 3 347 126 Right 2
SYMATTR Value PULSE(0 5 40ms 10n 10n 9999 9999 1)
SYMATTR InstName V2
SYMBOL RampGen 656 256 R0
SYMATTR InstName RAMPGEN
SYMBOL NAND2 448 272 R0
SYMATTR InstName X2
SYMBOL UARTfaker-1 176 128 R0
SYMATTR InstName X3
SYMBOL UARTfaker-2 176 192 R0
SYMATTR InstName X4
SYMBOL UARTfaker-Glitch 176 256 R0
SYMATTR InstName X5
SYMBOL NAND4 448 496 R0
SYMATTR InstName X1
SYMBOL GlitchDetector 1440 128 R0
SYMATTR InstName GLITCHDETECT
SYMBOL NAND2 800 720 R0
SYMATTR InstName X6
SYMBOL NAND3 800 880 R0
SYMATTR InstName X7
SYMBOL voltage 224 928 R0
WINDOW 3 347 126 Right 2
SYMATTR Value PULSE(0 5 0 10n 10n 110m 111m 1)
SYMATTR InstName V3
TEXT 600 80 Left 2 !.tran 120ms,UIC
TEXT 264 80 Left 6 ;UART-RX
