Version 4
SHEET 1 880 1152
WIRE 496 -304 336 -304
WIRE 432 -272 368 -272
WIRE 432 -224 432 -272
WIRE 192 -192 192 -208
WIRE 192 -192 112 -192
WIRE 368 -192 368 -272
WIRE 368 -192 192 -192
WIRE 512 -192 368 -192
WIRE 608 -192 512 -192
WIRE 608 -160 608 -192
WIRE 192 -128 192 -192
WIRE 432 -128 432 -144
WIRE 544 -128 432 -128
WIRE 736 -128 688 -128
WIRE 496 -96 496 -304
WIRE 544 -96 496 -96
WIRE 736 -96 688 -96
WIRE 432 -80 432 -128
WIRE 112 -32 112 -192
WIRE 512 -32 512 -192
WIRE 608 -32 512 -32
WIRE 608 0 608 -32
WIRE 192 16 192 -48
WIRE 192 16 176 16
WIRE 432 32 432 0
WIRE 544 32 432 32
WIRE 736 32 688 32
WIRE 176 64 176 16
WIRE 496 64 496 -96
WIRE 544 64 496 64
WIRE 736 64 688 64
WIRE 432 80 432 32
WIRE 112 112 112 64
WIRE 512 128 512 -32
WIRE 608 128 512 128
WIRE 112 160 112 112
WIRE 224 160 176 160
WIRE 288 160 224 160
WIRE 336 160 336 -304
WIRE 336 160 288 160
WIRE 608 160 608 128
WIRE 224 176 224 160
WIRE 432 192 432 160
WIRE 544 192 432 192
WIRE 736 192 688 192
WIRE 496 224 496 64
WIRE 544 224 496 224
WIRE 736 224 688 224
WIRE 432 240 432 192
WIRE 512 288 512 128
WIRE 608 288 512 288
WIRE 608 320 608 288
WIRE 432 352 432 320
WIRE 544 352 432 352
WIRE 736 352 688 352
WIRE 496 384 496 224
WIRE 544 384 496 384
WIRE 736 384 688 384
WIRE 336 640 336 160
WIRE 432 400 432 352
WIRE 512 448 512 288
WIRE 608 448 512 448
WIRE 608 480 608 448
WIRE 432 512 432 480
WIRE 544 512 432 512
WIRE 736 512 688 512
WIRE 496 544 496 384
WIRE 544 544 496 544
WIRE 736 544 688 544
WIRE 432 560 432 512
WIRE 512 608 512 448
WIRE 608 608 512 608
WIRE 608 640 608 608
WIRE 432 672 432 640
WIRE 544 672 432 672
WIRE 736 672 688 672
WIRE 160 688 112 688
WIRE 272 688 240 688
WIRE 496 704 496 544
WIRE 544 704 496 704
WIRE 736 704 688 704
WIRE 432 720 432 672
WIRE 336 768 336 736
WIRE 512 768 512 608
WIRE 608 768 512 768
WIRE 608 800 608 768
WIRE 432 832 432 800
WIRE 544 832 432 832
WIRE 736 832 688 832
WIRE 496 864 496 704
WIRE 544 864 496 864
WIRE 736 864 688 864
WIRE 432 880 432 832
WIRE 512 928 512 768
WIRE 608 928 512 928
WIRE 608 960 608 928
WIRE 432 992 432 960
WIRE 544 992 432 992
WIRE 736 992 688 992
WIRE 496 1024 496 864
WIRE 544 1024 496 1024
WIRE 736 1024 688 1024
WIRE 432 1040 432 992
WIRE 432 1136 432 1120
FLAG 112 240 0
FLAG 224 240 0
FLAG 192 -208 V+
IOPIN 192 -208 In
FLAG 432 1136 0
FLAG 736 992 OUT1
IOPIN 736 992 Out
FLAG 736 832 OUT2
IOPIN 736 832 Out
FLAG 736 672 OUT3
IOPIN 736 672 Out
FLAG 736 512 OUT4
IOPIN 736 512 Out
FLAG 736 352 OUT5
IOPIN 736 352 Out
FLAG 736 192 OUT6
IOPIN 736 192 Out
FLAG 736 32 OUT7
IOPIN 736 32 Out
FLAG 736 -128 OUT8
IOPIN 736 -128 Out
FLAG 288 160 RAMP
FLAG 112 688 RESET
IOPIN 112 688 In
FLAG 336 768 0
SYMBOL pnp 112 160 M180
SYMATTR InstName Q1
SYMATTR Value BC557B
SYMBOL pnp 176 64 R180
SYMATTR InstName Q2
SYMATTR Value BC557B
SYMBOL res 96 144 R0
SYMATTR InstName R1
SYMATTR Value 10000
SYMBOL cap 208 176 R0
SYMATTR InstName C1
SYMATTR Value 100µ
SYMBOL res 176 -144 R0
SYMATTR InstName R2
SYMATTR Value 18
SYMBOL Comparator 608 -112 R0
SYMATTR InstName X1
SYMBOL Comparator 608 48 R0
SYMATTR InstName X2
SYMBOL Comparator 608 208 R0
SYMATTR InstName X3
SYMBOL Comparator 608 368 R0
SYMATTR InstName X4
SYMBOL Comparator 608 528 R0
SYMATTR InstName X5
SYMBOL Comparator 608 688 R0
SYMATTR InstName X6
SYMBOL Comparator 608 848 R0
SYMATTR InstName X7
SYMBOL Comparator 608 1008 R0
SYMATTR InstName X8
SYMBOL res 416 -240 R0
SYMATTR InstName R13
SYMATTR Value 120
SYMBOL res 416 -96 R0
SYMATTR InstName R14
SYMATTR Value 80
SYMBOL res 416 64 R0
SYMATTR InstName R15
SYMATTR Value 80
SYMBOL res 416 224 R0
SYMATTR InstName R16
SYMATTR Value 80
SYMBOL res 416 384 R0
SYMATTR InstName R17
SYMATTR Value 80
SYMBOL res 416 544 R0
SYMATTR InstName R18
SYMATTR Value 80
SYMBOL res 416 704 R0
SYMATTR InstName R19
SYMATTR Value 80
SYMBOL res 416 864 R0
SYMATTR InstName R20
SYMATTR Value 80
SYMBOL res 416 1024 R0
SYMATTR InstName R21
SYMATTR Value 120
SYMBOL npn 272 640 R0
SYMATTR InstName Q3
SYMATTR Value BC547B
SYMBOL res 256 672 R90
WINDOW 0 0 56 VBottom 2
WINDOW 3 32 56 VTop 2
SYMATTR InstName R3
SYMATTR Value 100
TEXT -120 408 Left 6 ;SEQUENCER
