Version 4
SHEET 1 880 1152
WIRE 96 -112 -112 -112
WIRE 176 -96 176 -144
WIRE 176 -96 -48 -96
WIRE -48 -64 -48 -96
WIRE -32 -64 -48 -64
WIRE 96 -32 96 -112
WIRE 128 -32 96 -32
WIRE 176 -32 176 -96
WIRE 256 -16 208 -16
WIRE 48 0 48 -64
WIRE 128 0 48 0
WIRE 48 16 48 0
WIRE 96 64 96 -32
WIRE 128 64 96 64
WIRE 176 64 176 -32
WIRE 256 80 208 80
WIRE 128 96 48 96
WIRE 48 112 48 96
WIRE 96 160 96 64
WIRE 128 160 96 160
WIRE 176 160 176 64
WIRE 256 176 208 176
WIRE 128 192 48 192
WIRE 48 208 48 192
WIRE 96 256 96 160
WIRE 128 256 96 256
WIRE 176 256 176 160
WIRE 256 272 208 272
WIRE 128 288 48 288
WIRE 48 304 48 288
WIRE 96 352 96 256
WIRE 128 352 96 352
WIRE 176 352 176 256
WIRE 256 368 208 368
WIRE 128 384 48 384
WIRE 48 400 48 384
WIRE 96 448 96 352
WIRE 128 448 96 448
WIRE 176 448 176 352
WIRE 256 464 208 464
WIRE 128 480 48 480
WIRE 48 496 48 480
WIRE 96 544 96 448
WIRE 128 544 96 544
WIRE 176 544 176 448
WIRE 256 560 208 560
WIRE 128 576 48 576
WIRE 48 592 48 576
WIRE 96 640 96 544
WIRE 128 640 96 640
WIRE 176 640 176 544
WIRE 256 656 208 656
WIRE 128 672 48 672
WIRE 48 688 48 672
WIRE 96 736 96 640
WIRE 128 736 96 736
WIRE 176 736 176 640
WIRE 256 752 208 752
WIRE 48 768 16 768
WIRE 128 768 48 768
WIRE -64 800 -64 768
FLAG -64 800 0
FLAG 256 -16 STARTBIT
IOPIN 256 -16 Out
FLAG 256 80 BIT0
IOPIN 256 80 Out
FLAG 256 176 BIT1
IOPIN 256 176 Out
FLAG 256 272 BIT2
IOPIN 256 272 Out
FLAG 256 368 BIT3
IOPIN 256 368 Out
FLAG 256 464 BIT4
IOPIN 256 464 Out
FLAG 256 560 BIT5
IOPIN 256 560 Out
FLAG 256 656 BIT6
IOPIN 256 656 Out
FLAG 256 752 BIT7
IOPIN 256 752 Out
FLAG 176 -144 V+
IOPIN 176 -144 In
FLAG -112 -112 RAMP
IOPIN -112 -112 In
SYMBOL res 32 0 R0
SYMATTR InstName R1
SYMATTR Value 100
SYMBOL res 32 96 R0
SYMATTR InstName R2
SYMATTR Value 100
SYMBOL res 32 192 R0
SYMATTR InstName R3
SYMATTR Value 100
SYMBOL res 32 288 R0
SYMATTR InstName R4
SYMATTR Value 100
SYMBOL res 32 384 R0
SYMATTR InstName R5
SYMATTR Value 100
SYMBOL res 32 480 R0
SYMATTR InstName R6
SYMATTR Value 100
SYMBOL res 32 672 R0
SYMATTR InstName R7
SYMATTR Value 100
SYMBOL res 32 752 R90
WINDOW 0 0 56 VBottom 2
WINDOW 3 32 56 VTop 2
SYMATTR InstName R8
SYMATTR Value 200
SYMBOL res -48 -48 R270
WINDOW 0 32 56 VTop 2
WINDOW 3 0 56 VBottom 2
SYMATTR InstName R9
SYMATTR Value 385
SYMBOL res 32 576 R0
SYMATTR InstName R10
SYMATTR Value 100
SYMBOL Comparator 208 -16 R0
SYMATTR InstName COMP1
SYMBOL Comparator 208 80 R0
SYMATTR InstName COMP2
SYMBOL Comparator 208 176 R0
SYMATTR InstName COMP3
SYMBOL Comparator 208 272 R0
SYMATTR InstName COMP4
SYMBOL Comparator 208 368 R0
SYMATTR InstName COMP5
SYMBOL Comparator 208 464 R0
SYMATTR InstName COMP6
SYMBOL Comparator 208 560 R0
SYMATTR InstName COMP7
SYMBOL Comparator 208 656 R0
SYMATTR InstName COMP8
SYMBOL Comparator 208 752 R0
SYMATTR InstName COMP9
