Version 4
SHEET 1 1972 1096
WIRE 1248 128 400 128
WIRE 1312 128 1248 128
WIRE 1600 128 1568 128
WIRE 336 160 224 160
WIRE 1312 160 1120 160
WIRE 592 224 592 208
WIRE 608 224 592 224
WIRE 400 256 400 128
WIRE 400 256 224 256
WIRE 416 256 400 256
WIRE 608 256 560 256
WIRE 784 256 736 256
WIRE 800 256 784 256
WIRE 944 256 944 240
WIRE 512 272 496 272
WIRE 1120 272 1120 160
WIRE 1120 272 1072 272
WIRE 1136 272 1120 272
WIRE 1248 272 1248 128
WIRE 1328 272 1248 272
WIRE 1328 304 1072 304
WIRE 1488 304 1456 304
WIRE 800 320 800 256
WIRE 912 320 800 320
WIRE 1328 336 1072 336
WIRE 1488 336 1456 336
WIRE 416 352 416 288
WIRE 496 352 416 352
WIRE 1328 368 1072 368
WIRE 1488 368 1456 368
WIRE 512 400 512 272
WIRE 512 400 416 400
WIRE 1328 400 1072 400
WIRE 1488 400 1456 400
WIRE 1328 432 1072 432
WIRE 1488 432 1456 432
WIRE 1328 464 1072 464
WIRE 1488 464 1456 464
WIRE 416 480 416 400
WIRE 352 496 224 496
WIRE 416 496 352 496
WIRE 1328 496 1072 496
WIRE 1488 496 1456 496
WIRE 416 512 384 512
WIRE 496 512 496 352
WIRE 560 512 560 256
WIRE 560 512 496 512
WIRE 416 528 400 528
WIRE 1104 528 1072 528
WIRE 1328 528 1104 528
WIRE 1488 528 1456 528
WIRE 400 576 400 528
WIRE 560 576 400 576
WIRE 1104 576 1104 528
WIRE 1104 576 560 576
WIRE 384 608 384 512
WIRE 560 608 384 608
WIRE 1600 608 1600 128
WIRE 1600 608 560 608
WIRE 400 704 400 576
WIRE 480 704 400 704
WIRE 576 720 560 720
WIRE 672 720 576 720
WIRE 480 736 464 736
WIRE 464 768 464 736
WIRE 560 768 464 768
WIRE 576 784 576 720
WIRE 576 784 464 784
WIRE 464 864 464 784
WIRE 480 864 464 864
WIRE 352 880 352 496
WIRE 480 880 352 880
WIRE 560 880 560 768
WIRE 480 896 240 896
FLAG 448 448 v+
FLAG 448 224 v+
FLAG 944 240 V+
FLAG 560 576 DONE
FLAG 592 208 V+
FLAG 1312 96 v+
FLAG 512 672 V+
FLAG 512 832 V+
FLAG 672 720 READY
IOPIN 672 720 Out
FLAG 1136 272 startbit
FLAG 240 896 ACK
IOPIN 240 896 In
FLAG 224 256 RX
IOPIN 224 256 In
FLAG 224 496 RESET
IOPIN 224 496 In
FLAG 784 256 RAMP
FLAG 336 160 V+
FLAG 224 160 V+
IOPIN 224 160 In
FLAG 560 608 GLITCH
FLAG 1328 240 v+
FLAG 1488 304 D0
IOPIN 1488 304 Out
FLAG 1488 336 D1
IOPIN 1488 336 Out
FLAG 1488 368 D2
IOPIN 1488 368 Out
FLAG 1488 400 D3
IOPIN 1488 400 Out
FLAG 1488 432 D4
IOPIN 1488 432 Out
FLAG 1488 464 D5
IOPIN 1488 464 Out
FLAG 1488 496 D6
IOPIN 1488 496 Out
FLAG 1488 528 D7
IOPIN 1488 528 Out
SYMBOL UART-Rx-Sequencer 960 384 R0
WINDOW 0 72 -134 Bottom 2
SYMATTR InstName SEQUENCER
SYMBOL RampGen 656 256 R0
SYMATTR InstName RAMPGEN
SYMBOL NAND2 448 272 R0
SYMATTR InstName X2
SYMBOL NAND4 448 496 R0
SYMATTR InstName X1
SYMBOL GlitchDetector 1440 128 R0
SYMATTR InstName GLITCHDETECT
SYMBOL NAND2 512 720 R0
SYMATTR InstName X6
SYMBOL NAND3 512 880 R0
SYMATTR InstName X7
SYMBOL Octal-D-Latch 1392 384 R0
SYMATTR InstName LATCH
TEXT 264 80 Left 6 ;UART-RX
