Version 4
SHEET 1 880 1152
WIRE 128 -192 -112 -192
WIRE -32 -144 -48 -144
WIRE -48 -112 -48 -144
WIRE 48 -80 48 -144
WIRE 48 16 48 0
WIRE 48 16 -16 16
WIRE 160 16 48 16
WIRE 208 16 208 -96
WIRE 288 32 240 32
WIRE 128 48 128 -192
WIRE 160 48 128 48
WIRE 48 112 48 96
WIRE 48 112 -16 112
WIRE 160 112 48 112
WIRE 208 112 208 16
WIRE 288 128 240 128
WIRE 128 144 128 48
WIRE 160 144 128 144
WIRE 48 208 48 192
WIRE 48 208 -16 208
WIRE 160 208 48 208
WIRE 208 208 208 112
WIRE 288 224 240 224
WIRE 128 240 128 144
WIRE 160 240 128 240
WIRE 48 304 48 288
WIRE 48 304 -16 304
WIRE 160 304 48 304
WIRE 208 304 208 208
WIRE 288 320 240 320
WIRE 128 336 128 240
WIRE 160 336 128 336
WIRE 48 400 48 384
WIRE 48 400 -16 400
WIRE 160 400 48 400
WIRE 208 400 208 304
WIRE 288 416 240 416
WIRE 128 432 128 336
WIRE 160 432 128 432
WIRE 48 496 48 480
WIRE 48 496 -16 496
WIRE 160 496 48 496
WIRE 208 496 208 400
WIRE 288 512 240 512
WIRE 128 528 128 432
WIRE 160 528 128 528
WIRE 48 592 48 576
WIRE 48 592 -16 592
WIRE 160 592 48 592
WIRE 208 592 208 496
WIRE 288 608 240 608
WIRE 128 624 128 528
WIRE 160 624 128 624
WIRE 48 688 48 672
WIRE 48 688 -16 688
WIRE 160 688 48 688
WIRE 208 688 208 592
WIRE 288 704 240 704
WIRE 128 720 128 624
WIRE 160 720 128 720
WIRE 48 784 48 768
WIRE 48 784 -16 784
WIRE 160 784 48 784
WIRE 208 784 208 688
WIRE 288 800 240 800
WIRE 128 816 128 720
WIRE 160 816 128 816
WIRE 128 864 128 816
WIRE -48 944 -64 944
WIRE 48 944 48 864
WIRE 48 944 32 944
FLAG 288 32 STARTBIT
IOPIN 288 32 Out
FLAG 288 128 BIT0
IOPIN 288 128 Out
FLAG 288 224 BIT1
IOPIN 288 224 Out
FLAG 288 320 BIT2
IOPIN 288 320 Out
FLAG 288 416 BIT3
IOPIN 288 416 Out
FLAG 288 512 BIT4
IOPIN 288 512 Out
FLAG 288 608 BIT5
IOPIN 288 608 Out
FLAG 288 704 BIT6
IOPIN 288 704 Out
FLAG 288 800 BIT7
IOPIN 288 800 Out
FLAG 208 -96 V+
IOPIN 208 -96 In
FLAG -112 -192 RAMP
IOPIN -112 -192 In
FLAG -48 -112 0
FLAG -64 944 V+
FLAG -16 16 VSTART
FLAG -16 112 VBIT0
FLAG -16 208 VBIT1
FLAG -16 304 VBIT2
FLAG -16 400 VBIT3
FLAG -16 496 VBIT4
FLAG -16 592 VBIT5
FLAG -16 688 VBIT6
FLAG -16 784 VBIT7
SYMBOL res 32 0 R0
SYMATTR InstName R1
SYMATTR Value 125
SYMBOL res 32 96 R0
SYMATTR InstName R2
SYMATTR Value 100
SYMBOL res 32 192 R0
SYMATTR InstName R3
SYMATTR Value 100
SYMBOL res 32 288 R0
SYMATTR InstName R4
SYMATTR Value 100
SYMBOL res 32 384 R0
SYMATTR InstName R5
SYMATTR Value 100
SYMBOL res 32 480 R0
SYMATTR InstName R6
SYMATTR Value 100
SYMBOL res 32 672 R0
SYMATTR InstName R7
SYMATTR Value 100
SYMBOL res 48 928 R90
WINDOW 0 0 56 VBottom 2
WINDOW 3 32 56 VTop 2
SYMATTR InstName R8
SYMATTR Value 470
SYMBOL res -48 -128 R270
WINDOW 0 32 56 VTop 2
WINDOW 3 0 56 VBottom 2
SYMATTR InstName R9
SYMATTR Value 390
SYMBOL res 32 576 R0
SYMATTR InstName R10
SYMATTR Value 100
SYMBOL Comparator 240 32 R0
SYMATTR InstName COMP1
SYMBOL Comparator 240 128 R0
SYMATTR InstName COMP2
SYMBOL Comparator 240 224 R0
SYMATTR InstName COMP3
SYMBOL Comparator 240 320 R0
SYMATTR InstName COMP4
SYMBOL Comparator 240 416 R0
SYMATTR InstName COMP5
SYMBOL Comparator 240 512 R0
SYMATTR InstName COMP6
SYMBOL Comparator 240 608 R0
SYMATTR InstName COMP7
SYMBOL Comparator 240 704 R0
SYMATTR InstName COMP8
SYMBOL Comparator 240 800 R0
SYMATTR InstName COMP9
SYMBOL res 32 -96 R0
SYMATTR InstName R11
SYMATTR Value 25
SYMBOL res 32 768 R0
SYMATTR InstName R12
SYMATTR Value 50
TEXT 296 0 Left 2 ;1.12v
TEXT 288 96 Left 2 ;1.44v
TEXT 296 192 Left 2 ;1.76
TEXT 296 288 Left 2 ;2.08v
TEXT 296 384 Left 2 ;2.41
TEXT 296 480 Left 2 ;2.71v
TEXT 296 576 Left 2 ;3.02v
TEXT 296 672 Left 2 ;3.33v
TEXT 288 768 Left 2 ;3.62v
