Version 4
SHEET 1 880 768
WIRE 112 224 -64 224
WIRE 256 224 112 224
WIRE 400 240 368 240
WIRE 160 256 16 256
WIRE 256 256 160 256
WIRE 400 272 368 272
WIRE 560 272 400 272
WIRE 192 288 96 288
WIRE 256 288 192 288
WIRE 400 304 368 304
WIRE 272 544 272 352
FLAG 400 240 CO
FLAG 400 272 SUM
FLAG -64 304 0
FLAG 16 336 0
FLAG 96 368 0
FLAG 112 224 A
FLAG 160 256 B
FLAG 192 288 CI
FLAG 400 304 /SUM
FLAG 272 624 0
SYMBOL FA1 304 256 R0
SYMATTR InstName X1
SYMBOL voltage -64 208 R0
WINDOW 3 -2 229 Left 2
WINDOW 123 0 0 Left 2
SYMATTR Value PULSE(3.3 0 0 1n 1n 100n 200n)
SYMATTR InstName V1
SYMBOL voltage 16 240 R0
WINDOW 3 -84 228 Left 2
SYMATTR Value PULSE(3.2 0.1 0 1n 1n 200n 400n)
SYMATTR InstName V2
SYMBOL voltage 96 272 R0
WINDOW 3 -161 226 Left 2
SYMATTR Value PULSE(3.1 0.2 0 1n 1n 400n 800n)
SYMATTR InstName V3
SYMBOL voltage 272 528 R0
WINDOW 3 -437 70 Left 2
SYMATTR Value PULSE(3.1 0.2 0 1n 1n 2000n 4000n)
SYMATTR InstName V4
TEXT -64 536 Left 2 !.tran 5888n
