Version 4
SHEET 1 4484 1160
WIRE 240 -1120 -48 -1120
WIRE 464 -1120 240 -1120
WIRE 624 -1120 464 -1120
WIRE 848 -1120 624 -1120
WIRE 960 -1120 848 -1120
WIRE 1184 -1120 960 -1120
WIRE 1344 -1120 1184 -1120
WIRE 1568 -1120 1344 -1120
WIRE 1664 -1120 1568 -1120
WIRE 1888 -1120 1664 -1120
WIRE 2048 -1120 1888 -1120
WIRE 2272 -1120 2048 -1120
WIRE 2384 -1120 2272 -1120
WIRE 2608 -1120 2384 -1120
WIRE 2768 -1120 2608 -1120
WIRE 2992 -1120 2768 -1120
WIRE 3152 -1120 2992 -1120
WIRE 3376 -1120 3152 -1120
WIRE 3536 -1120 3376 -1120
WIRE 3760 -1120 3536 -1120
WIRE 176 -1008 48 -1008
WIRE 240 -1008 240 -1040
WIRE 272 -1008 240 -1008
WIRE 368 -1008 336 -1008
WIRE 464 -1008 464 -1040
WIRE 464 -1008 432 -1008
WIRE 560 -1008 464 -1008
WIRE 624 -1008 624 -1040
WIRE 672 -1008 624 -1008
WIRE 752 -1008 736 -1008
WIRE 848 -1008 848 -1040
WIRE 848 -1008 816 -1008
WIRE 896 -1008 848 -1008
WIRE 960 -1008 960 -1040
WIRE 992 -1008 960 -1008
WIRE 1088 -1008 1056 -1008
WIRE 1184 -1008 1184 -1040
WIRE 1184 -1008 1152 -1008
WIRE 1280 -1008 1184 -1008
WIRE 1344 -1008 1344 -1040
WIRE 1376 -1008 1344 -1008
WIRE 1472 -1008 1440 -1008
WIRE 1568 -1008 1568 -1040
WIRE 1568 -1008 1536 -1008
WIRE 1600 -1008 1568 -1008
WIRE 1664 -1008 1664 -1040
WIRE 1696 -1008 1664 -1008
WIRE 1792 -1008 1760 -1008
WIRE 1888 -1008 1888 -1040
WIRE 1888 -1008 1856 -1008
WIRE 1984 -1008 1888 -1008
WIRE 2048 -1008 2048 -1040
WIRE 2080 -1008 2048 -1008
WIRE 2176 -1008 2144 -1008
WIRE 2272 -1008 2272 -1040
WIRE 2272 -1008 2240 -1008
WIRE 2320 -1008 2272 -1008
WIRE 2384 -1008 2384 -1040
WIRE 2416 -1008 2384 -1008
WIRE 2512 -1008 2480 -1008
WIRE 2608 -1008 2608 -1040
WIRE 2608 -1008 2576 -1008
WIRE 2704 -1008 2608 -1008
WIRE 2768 -1008 2768 -1040
WIRE 2800 -1008 2768 -1008
WIRE 2896 -1008 2864 -1008
WIRE 2992 -1008 2992 -1040
WIRE 2992 -1008 2960 -1008
WIRE 3088 -1008 2992 -1008
WIRE 3152 -1008 3152 -1040
WIRE 3168 -1008 3152 -1008
WIRE 3280 -1008 3232 -1008
WIRE 3376 -1008 3376 -1040
WIRE 3376 -1008 3344 -1008
WIRE 3472 -1008 3376 -1008
WIRE 3536 -1008 3536 -1040
WIRE 3584 -1008 3536 -1008
WIRE 3664 -1008 3648 -1008
WIRE 3760 -1008 3760 -1040
WIRE 3760 -1008 3728 -1008
WIRE 4016 -1008 3760 -1008
WIRE 464 -976 464 -1008
WIRE 848 -976 848 -1008
WIRE 1184 -976 1184 -1008
WIRE 1568 -976 1568 -1008
WIRE 1888 -976 1888 -1008
WIRE 2272 -976 2272 -1008
WIRE 2608 -976 2608 -1008
WIRE 2992 -976 2992 -1008
WIRE 3376 -976 3376 -1008
WIRE 3760 -976 3760 -1008
WIRE 368 -928 368 -1008
WIRE 400 -928 368 -928
WIRE 752 -928 752 -1008
WIRE 784 -928 752 -928
WIRE 1088 -928 1088 -1008
WIRE 1120 -928 1088 -928
WIRE 1472 -928 1472 -1008
WIRE 1504 -928 1472 -928
WIRE 1792 -928 1792 -1008
WIRE 1824 -928 1792 -928
WIRE 2176 -928 2176 -1008
WIRE 2208 -928 2176 -928
WIRE 2512 -928 2512 -1008
WIRE 2544 -928 2512 -928
WIRE 2896 -928 2896 -1008
WIRE 2928 -928 2896 -928
WIRE 3280 -928 3280 -1008
WIRE 3312 -928 3280 -928
WIRE 3664 -928 3664 -1008
WIRE 3696 -928 3664 -928
WIRE -128 -784 -128 -1120
WIRE 224 -784 -48 -784
WIRE 448 -784 224 -784
WIRE 608 -784 448 -784
WIRE 832 -784 608 -784
WIRE 944 -784 832 -784
WIRE 1168 -784 944 -784
WIRE 1328 -784 1168 -784
WIRE 1552 -784 1328 -784
WIRE 1648 -784 1552 -784
WIRE 1872 -784 1648 -784
WIRE 2032 -784 1872 -784
WIRE 2256 -784 2032 -784
WIRE 2368 -784 2256 -784
WIRE 2592 -784 2368 -784
WIRE 2752 -784 2592 -784
WIRE 2976 -784 2752 -784
WIRE 3136 -784 2976 -784
WIRE 3360 -784 3136 -784
WIRE 3520 -784 3360 -784
WIRE 3744 -784 3520 -784
WIRE 48 -672 48 -1008
WIRE 160 -672 48 -672
WIRE 224 -672 224 -704
WIRE 448 -672 448 -704
WIRE 448 -672 416 -672
WIRE 544 -672 448 -672
WIRE 608 -672 608 -704
WIRE 832 -672 832 -704
WIRE 832 -672 800 -672
WIRE 880 -672 832 -672
WIRE 944 -672 944 -704
WIRE 1168 -672 1168 -704
WIRE 1168 -672 1136 -672
WIRE 1264 -672 1168 -672
WIRE 1328 -672 1328 -704
WIRE 1552 -672 1552 -704
WIRE 1552 -672 1520 -672
WIRE 1648 -672 1648 -704
WIRE 1648 -672 1552 -672
WIRE 1872 -672 1872 -704
WIRE 1872 -672 1840 -672
WIRE 1968 -672 1872 -672
WIRE 2032 -672 2032 -704
WIRE 2256 -672 2256 -704
WIRE 2256 -672 2224 -672
WIRE 2304 -672 2256 -672
WIRE 2368 -672 2368 -704
WIRE 2592 -672 2592 -704
WIRE 2592 -672 2560 -672
WIRE 2688 -672 2592 -672
WIRE 2752 -672 2752 -704
WIRE 2976 -672 2976 -704
WIRE 2976 -672 2944 -672
WIRE 3072 -672 2976 -672
WIRE 3136 -672 3136 -704
WIRE 3360 -672 3360 -704
WIRE 3360 -672 3328 -672
WIRE 3456 -672 3360 -672
WIRE 3520 -672 3520 -704
WIRE 3744 -672 3744 -704
WIRE 3744 -672 3712 -672
WIRE 4000 -672 3744 -672
WIRE 448 -640 448 -672
WIRE 832 -640 832 -672
WIRE 1168 -640 1168 -672
WIRE 1552 -640 1552 -672
WIRE 1872 -640 1872 -672
WIRE 2256 -640 2256 -672
WIRE 2592 -640 2592 -672
WIRE 2976 -640 2976 -672
WIRE 3360 -640 3360 -672
WIRE 3744 -640 3744 -672
WIRE -128 -608 -128 -784
WIRE -128 -608 -144 -608
WIRE 352 -592 352 -672
WIRE 384 -592 352 -592
WIRE 736 -592 736 -672
WIRE 768 -592 736 -592
WIRE 1072 -592 1072 -672
WIRE 1104 -592 1072 -592
WIRE 1456 -592 1456 -672
WIRE 1488 -592 1456 -592
WIRE 1776 -592 1776 -672
WIRE 1808 -592 1776 -592
WIRE 2160 -592 2160 -672
WIRE 2192 -592 2160 -592
WIRE 2496 -592 2496 -672
WIRE 2528 -592 2496 -592
WIRE 2880 -592 2880 -672
WIRE 2912 -592 2880 -592
WIRE 3264 -592 3264 -672
WIRE 3296 -592 3264 -592
WIRE 3648 -592 3648 -672
WIRE 3680 -592 3648 -592
WIRE -144 -480 -144 -608
WIRE 224 -480 -64 -480
WIRE 448 -480 224 -480
WIRE 608 -480 448 -480
WIRE 832 -480 608 -480
WIRE 944 -480 832 -480
WIRE 1168 -480 944 -480
WIRE 1328 -480 1168 -480
WIRE 1552 -480 1328 -480
WIRE 1648 -480 1552 -480
WIRE 1872 -480 1648 -480
WIRE 2032 -480 1872 -480
WIRE 2256 -480 2032 -480
WIRE 2368 -480 2256 -480
WIRE 2592 -480 2368 -480
WIRE 2752 -480 2592 -480
WIRE 2976 -480 2752 -480
WIRE 3136 -480 2976 -480
WIRE 3360 -480 3136 -480
WIRE 3520 -480 3360 -480
WIRE 3744 -480 3520 -480
WIRE 48 -368 48 -672
WIRE 160 -368 48 -368
WIRE 224 -368 224 -400
WIRE 448 -368 448 -400
WIRE 448 -368 416 -368
WIRE 544 -368 448 -368
WIRE 608 -368 608 -400
WIRE 832 -368 832 -400
WIRE 832 -368 800 -368
WIRE 880 -368 832 -368
WIRE 944 -368 944 -400
WIRE 1168 -368 1168 -400
WIRE 1168 -368 1136 -368
WIRE 1264 -368 1168 -368
WIRE 1328 -368 1328 -400
WIRE 1552 -368 1552 -400
WIRE 1552 -368 1520 -368
WIRE 1648 -368 1648 -400
WIRE 1648 -368 1552 -368
WIRE 1872 -368 1872 -400
WIRE 1872 -368 1840 -368
WIRE 1968 -368 1872 -368
WIRE 2032 -368 2032 -400
WIRE 2256 -368 2256 -400
WIRE 2256 -368 2224 -368
WIRE 2304 -368 2256 -368
WIRE 2368 -368 2368 -400
WIRE 2592 -368 2592 -400
WIRE 2592 -368 2560 -368
WIRE 2688 -368 2592 -368
WIRE 2752 -368 2752 -400
WIRE 2976 -368 2976 -400
WIRE 2976 -368 2944 -368
WIRE 3072 -368 2976 -368
WIRE 3136 -368 3136 -400
WIRE 3360 -368 3360 -400
WIRE 3360 -368 3328 -368
WIRE 3456 -368 3360 -368
WIRE 3520 -368 3520 -400
WIRE 3744 -368 3744 -400
WIRE 3744 -368 3712 -368
WIRE 4000 -368 3744 -368
WIRE 448 -336 448 -368
WIRE 832 -336 832 -368
WIRE 1168 -336 1168 -368
WIRE 1552 -336 1552 -368
WIRE 1872 -336 1872 -368
WIRE 2256 -336 2256 -368
WIRE 2592 -336 2592 -368
WIRE 2976 -336 2976 -368
WIRE 3360 -336 3360 -368
WIRE 3744 -336 3744 -368
WIRE 48 -304 48 -368
WIRE 128 -304 48 -304
WIRE 352 -288 352 -368
WIRE 384 -288 352 -288
WIRE 736 -288 736 -368
WIRE 768 -288 736 -288
WIRE 1072 -288 1072 -368
WIRE 1104 -288 1072 -288
WIRE 1456 -288 1456 -368
WIRE 1488 -288 1456 -288
WIRE 1776 -288 1776 -368
WIRE 1808 -288 1776 -288
WIRE 2160 -288 2160 -368
WIRE 2192 -288 2160 -288
WIRE 2496 -288 2496 -368
WIRE 2528 -288 2496 -288
WIRE 2880 -288 2880 -368
WIRE 2912 -288 2880 -288
WIRE 3264 -288 3264 -368
WIRE 3296 -288 3264 -288
WIRE 3648 -288 3648 -368
WIRE 3680 -288 3648 -288
WIRE -144 -256 -144 -480
WIRE -128 -256 -144 -256
WIRE -128 -128 -128 -256
WIRE 224 -128 -48 -128
WIRE 432 -128 224 -128
WIRE 592 -128 432 -128
WIRE 800 -128 592 -128
WIRE 944 -128 800 -128
WIRE 1152 -128 944 -128
WIRE 1312 -128 1152 -128
WIRE 1520 -128 1312 -128
WIRE 1648 -128 1520 -128
WIRE 1856 -128 1648 -128
WIRE 2016 -128 1856 -128
WIRE 2224 -128 2016 -128
WIRE 2368 -128 2224 -128
WIRE 2576 -128 2368 -128
WIRE 2736 -128 2576 -128
WIRE 2944 -128 2736 -128
WIRE 3136 -128 2944 -128
WIRE 3344 -128 3136 -128
WIRE 3504 -128 3344 -128
WIRE 3712 -128 3504 -128
WIRE 1584 -80 1568 -80
WIRE 3008 -80 2992 -80
WIRE 3776 -80 3760 -80
WIRE 48 -16 48 -304
WIRE 48 -16 0 -16
WIRE 160 -16 48 -16
WIRE 224 -16 224 -48
WIRE 256 -16 224 -16
WIRE 336 -16 320 -16
WIRE 432 -16 432 -48
WIRE 432 -16 400 -16
WIRE 528 -16 432 -16
WIRE 592 -16 592 -48
WIRE 624 -16 592 -16
WIRE 704 -16 688 -16
WIRE 800 -16 800 -48
WIRE 800 -16 768 -16
WIRE 880 -16 800 -16
WIRE 944 -16 944 -48
WIRE 976 -16 944 -16
WIRE 1056 -16 1040 -16
WIRE 1152 -16 1152 -48
WIRE 1152 -16 1120 -16
WIRE 1248 -16 1152 -16
WIRE 1312 -16 1312 -48
WIRE 1344 -16 1312 -16
WIRE 1424 -16 1408 -16
WIRE 1520 -16 1520 -48
WIRE 1520 -16 1488 -16
WIRE 1584 -16 1520 -16
WIRE 1648 -16 1648 -48
WIRE 1680 -16 1648 -16
WIRE 1760 -16 1744 -16
WIRE 1856 -16 1856 -48
WIRE 1856 -16 1824 -16
WIRE 1952 -16 1856 -16
WIRE 2016 -16 2016 -48
WIRE 2048 -16 2016 -16
WIRE 2128 -16 2112 -16
WIRE 2224 -16 2224 -48
WIRE 2224 -16 2192 -16
WIRE 2304 -16 2224 -16
WIRE 2368 -16 2368 -48
WIRE 2400 -16 2368 -16
WIRE 2480 -16 2464 -16
WIRE 2576 -16 2576 -48
WIRE 2576 -16 2544 -16
WIRE 2672 -16 2576 -16
WIRE 2736 -16 2736 -48
WIRE 2768 -16 2736 -16
WIRE 2848 -16 2832 -16
WIRE 2944 -16 2944 -48
WIRE 2944 -16 2912 -16
WIRE 3072 -16 2944 -16
WIRE 3136 -16 3136 -48
WIRE 3168 -16 3136 -16
WIRE 3248 -16 3232 -16
WIRE 3344 -16 3344 -48
WIRE 3344 -16 3312 -16
WIRE 3440 -16 3344 -16
WIRE 3504 -16 3504 -48
WIRE 3536 -16 3504 -16
WIRE 3616 -16 3600 -16
WIRE 3712 -16 3712 -48
WIRE 3712 -16 3680 -16
WIRE 3920 -16 3712 -16
WIRE 432 16 432 -16
WIRE 800 16 800 -16
WIRE 1152 16 1152 -16
WIRE 1520 16 1520 -16
WIRE 1856 16 1856 -16
WIRE 2224 16 2224 -16
WIRE 2576 16 2576 -16
WIRE 2944 16 2944 -16
WIRE 3344 16 3344 -16
WIRE 3712 16 3712 -16
WIRE -128 48 -128 -128
WIRE 336 64 336 -16
WIRE 368 64 336 64
WIRE 704 64 704 -16
WIRE 736 64 704 64
WIRE 1056 64 1056 -16
WIRE 1088 64 1056 64
WIRE 1424 64 1424 -16
WIRE 1456 64 1424 64
WIRE 1760 64 1760 -16
WIRE 1792 64 1760 64
WIRE 2128 64 2128 -16
WIRE 2160 64 2128 64
WIRE 2480 64 2480 -16
WIRE 2512 64 2480 64
WIRE 2848 64 2848 -16
WIRE 2880 64 2848 64
WIRE 3248 64 3248 -16
WIRE 3280 64 3248 64
WIRE 3616 64 3616 -16
WIRE 3648 64 3616 64
WIRE 0 176 0 -16
WIRE 864 176 0 176
WIRE -32 240 -80 240
WIRE 0 240 0 176
WIRE 0 240 -32 240
WIRE 192 240 0 240
WIRE 480 240 368 240
WIRE 64 272 16 272
WIRE 192 272 144 272
WIRE 480 272 368 272
WIRE 1104 272 1024 272
WIRE 1264 272 1184 272
WIRE 1344 272 1264 272
WIRE 1632 272 1552 272
WIRE 1792 272 1712 272
WIRE 1872 272 1792 272
WIRE -80 304 -80 240
WIRE 480 304 368 304
WIRE 1264 304 1264 272
WIRE 1792 304 1792 272
WIRE 144 320 144 272
WIRE 480 336 368 336
WIRE 1392 352 1344 352
WIRE 2000 352 1872 352
WIRE 160 384 144 384
WIRE 1024 400 1024 272
WIRE 1056 400 1024 400
WIRE 1152 400 1120 400
WIRE 1264 400 1216 400
WIRE 1280 400 1264 400
WIRE 1552 400 1552 272
WIRE 1584 400 1552 400
WIRE 1680 400 1648 400
WIRE 1792 400 1744 400
WIRE 1808 400 1792 400
WIRE 1264 416 1264 400
WIRE 1792 416 1792 400
WIRE 1024 432 1024 400
WIRE 1024 432 976 432
WIRE 1552 432 1552 400
WIRE 1552 432 1504 432
WIRE -32 464 -32 240
WIRE 192 464 -32 464
WIRE 480 464 368 464
WIRE -240 480 -240 448
WIRE 864 480 864 176
WIRE 912 480 864 480
WIRE 1344 480 1344 448
WIRE 1392 480 1392 352
WIRE 1440 480 1392 480
WIRE 1872 480 1872 448
WIRE 48 496 0 496
WIRE 144 496 128 496
WIRE 192 496 144 496
WIRE 480 496 368 496
WIRE 1056 496 1056 400
WIRE 1104 496 1056 496
WIRE 1216 496 1216 400
WIRE 1216 496 1168 496
WIRE 1584 496 1584 400
WIRE 1632 496 1584 496
WIRE 1744 496 1744 400
WIRE 1744 496 1696 496
WIRE 480 528 368 528
WIRE 144 560 144 496
WIRE 480 560 368 560
WIRE 1104 576 1024 576
WIRE 1264 576 1184 576
WIRE 1344 576 1264 576
WIRE 1632 576 1552 576
WIRE 1792 576 1712 576
WIRE 1872 576 1792 576
WIRE 1264 608 1264 576
WIRE 1792 608 1792 576
WIRE 1392 656 1344 656
WIRE 2000 656 1872 656
WIRE -32 672 -32 464
WIRE 192 672 -32 672
WIRE 480 672 368 672
WIRE 48 704 0 704
WIRE 144 704 128 704
WIRE 192 704 144 704
WIRE 480 704 368 704
WIRE 1024 704 1024 576
WIRE 1056 704 1024 704
WIRE 1152 704 1120 704
WIRE 1264 704 1216 704
WIRE 1280 704 1264 704
WIRE 1552 704 1552 576
WIRE 1584 704 1552 704
WIRE 1680 704 1648 704
WIRE 1792 704 1744 704
WIRE 1808 704 1792 704
WIRE 1264 720 1264 704
WIRE 1792 720 1792 704
WIRE 480 736 368 736
WIRE 1024 736 1024 704
WIRE 1024 736 976 736
WIRE 1552 736 1552 704
WIRE 1552 736 1504 736
WIRE 144 768 144 704
WIRE 480 768 368 768
WIRE 864 784 864 480
WIRE 912 784 864 784
WIRE 1344 784 1344 752
WIRE 1392 784 1392 656
WIRE 1440 784 1392 784
WIRE 1872 784 1872 752
WIRE 1056 800 1056 704
WIRE 1104 800 1056 800
WIRE 1216 800 1216 704
WIRE 1216 800 1168 800
WIRE 1584 800 1584 704
WIRE 1632 800 1584 800
WIRE 1744 800 1744 704
WIRE 1744 800 1696 800
FLAG 480 240 clk0
FLAG 480 272 clk90
FLAG 480 304 clk180
FLAG 480 336 clk270
FLAG -80 384 0
FLAG -240 560 0
FLAG -240 448 v+
FLAG 16 272 v+
FLAG -80 240 CLK
FLAG 480 464 clk0sil
FLAG 480 496 clk90sil
FLAG 480 528 clk180sil
FLAG 480 560 clk270sil
FLAG 0 496 v+
FLAG 432 112 0
FLAG 800 112 0
FLAG 448 -544 0
FLAG 832 -544 0
FLAG 1152 112 0
FLAG 1520 112 0
FLAG 1168 -544 0
FLAG 1552 -544 0
FLAG 1856 112 0
FLAG 2224 112 0
FLAG 1872 -544 0
FLAG 2256 -544 0
FLAG 2576 112 0
FLAG 2944 112 0
FLAG 2592 -544 0
FLAG 2976 -544 0
FLAG 464 -880 0
FLAG 848 -880 0
FLAG 1184 -880 0
FLAG 1568 -880 0
FLAG 1888 -880 0
FLAG 2272 -880 0
FLAG 2608 -880 0
FLAG 2992 -880 0
FLAG 3344 112 0
FLAG 3712 112 0
FLAG 3360 -544 0
FLAG 3744 -544 0
FLAG 3376 -880 0
FLAG 3760 -880 0
FLAG 4016 -1008 LED+SCH
FLAG 4000 -672 2D+SCH470
FLAG 3920 -16 LED+Si
FLAG -128 48 v+
FLAG 448 -240 0
FLAG 832 -240 0
FLAG 1168 -240 0
FLAG 1552 -240 0
FLAG 1872 -240 0
FLAG 2256 -240 0
FLAG 2592 -240 0
FLAG 2976 -240 0
FLAG 3360 -240 0
FLAG 3744 -240 0
FLAG 4000 -368 2D+SCH680
FLAG 144 624 0
FLAG 160 384 0
FLAG 0 704 v+
FLAG 144 832 0
FLAG 480 768 clk270-MT
FLAG 480 736 clk180-MT
FLAG 480 704 clk90-MT
FLAG 480 672 clk0-MT
FLAG 1264 496 0
FLAG 1344 480 0
FLAG 976 528 0
FLAG 1264 304 v+
FLAG 1792 496 0
FLAG 1872 480 0
FLAG 1504 528 0
FLAG 1792 304 v+
FLAG 1264 800 0
FLAG 1344 784 0
FLAG 976 832 0
FLAG 1264 608 v+
FLAG 1792 800 0
FLAG 1872 784 0
FLAG 1504 832 0
FLAG 1792 608 v+
SYMBOL QuadGen 272 288 R0
SYMATTR InstName X1
SYMBOL voltage -80 288 R0
SYMATTR InstName V1
SYMATTR Value PULSE(0 3 0 5n 5n 100n 200n)
SYMBOL voltage -240 464 R0
SYMATTR InstName V2
SYMATTR Value 3
SYMBOL QuadGen-Sil 272 512 R0
SYMATTR InstName X2
SYMBOL res 144 480 R90
WINDOW 0 0 56 VBottom 2
WINDOW 3 32 56 VTop 2
SYMATTR InstName R7
SYMATTR Value 0.01
SYMBOL res 160 256 R90
WINDOW 0 0 56 VBottom 2
WINDOW 3 32 56 VTop 2
SYMATTR InstName R8
SYMATTR Value 0.01
SYMBOL npn 368 16 R0
SYMATTR InstName Q1
SYMATTR Value BC847B
SYMBOL res 416 -144 R0
SYMATTR InstName R3
SYMATTR Value 150
SYMBOL res 208 -144 R0
SYMATTR InstName R5
SYMATTR Value 470
SYMBOL diode 336 0 R270
WINDOW 0 32 32 VTop 2
WINDOW 3 0 32 VBottom 2
SYMATTR InstName D1
SYMATTR Value 1N4148
SYMBOL diode 224 -32 R90
WINDOW 0 0 32 VBottom 2
WINDOW 3 32 32 VTop 2
SYMATTR InstName D2
SYMATTR Value 1N4148
SYMBOL LED 256 0 R270
WINDOW 0 72 32 VTop 2
WINDOW 3 0 32 VBottom 2
SYMATTR InstName D4
SYMATTR Value NSCW100
SYMBOL npn 736 16 R0
SYMATTR InstName Q2
SYMATTR Value BC847B
SYMBOL res 784 -144 R0
SYMATTR InstName R6
SYMATTR Value 150
SYMBOL res 576 -144 R0
SYMATTR InstName R13
SYMATTR Value 470
SYMBOL diode 704 0 R270
WINDOW 0 32 32 VTop 2
WINDOW 3 0 32 VBottom 2
SYMATTR InstName D3
SYMATTR Value 1N4148
SYMBOL diode 592 -32 R90
WINDOW 0 0 32 VBottom 2
WINDOW 3 32 32 VTop 2
SYMATTR InstName D5
SYMATTR Value 1N4148
SYMBOL LED 624 0 R270
WINDOW 0 72 32 VTop 2
WINDOW 3 0 32 VBottom 2
SYMATTR InstName D6
SYMATTR Value NSCW100
SYMBOL npn 384 -640 R0
SYMATTR InstName Q3
SYMATTR Value BC847B
SYMBOL res 432 -800 R0
SYMATTR InstName R14
SYMATTR Value 150
SYMBOL res 208 -800 R0
SYMATTR InstName R15
SYMATTR Value 470
SYMBOL schottky 352 -656 R270
WINDOW 0 32 32 VTop 2
WINDOW 3 0 32 VBottom 2
SYMATTR InstName D7
SYMATTR Value BAT54
SYMATTR Description Diode
SYMATTR Type diode
SYMBOL diode 224 -688 R90
WINDOW 0 0 32 VBottom 2
WINDOW 3 32 32 VTop 2
SYMATTR InstName D8
SYMATTR Value 1N4148
SYMBOL npn 768 -640 R0
SYMATTR InstName Q4
SYMATTR Value BC847B
SYMBOL res 816 -800 R0
SYMATTR InstName R16
SYMATTR Value 150
SYMBOL res 592 -800 R0
SYMATTR InstName R17
SYMATTR Value 470
SYMBOL schottky 736 -656 R270
WINDOW 0 32 32 VTop 2
WINDOW 3 0 32 VBottom 2
SYMATTR InstName D10
SYMATTR Value BAT54
SYMATTR Description Diode
SYMATTR Type diode
SYMBOL diode 608 -688 R90
WINDOW 0 0 32 VBottom 2
WINDOW 3 32 32 VTop 2
SYMATTR InstName D11
SYMATTR Value 1N4148
SYMBOL diode 224 -656 R270
WINDOW 0 32 32 VTop 2
WINDOW 3 0 32 VBottom 2
SYMATTR InstName D9
SYMATTR Value 1N4148
SYMBOL diode 608 -656 R270
WINDOW 0 32 32 VTop 2
WINDOW 3 0 32 VBottom 2
SYMATTR InstName D13
SYMATTR Value 1N4148
SYMBOL diode 288 -656 R270
WINDOW 0 32 32 VTop 2
WINDOW 3 0 32 VBottom 2
SYMATTR InstName D12
SYMATTR Value 1N4148
SYMBOL diode 672 -656 R270
WINDOW 0 32 32 VTop 2
WINDOW 3 0 32 VBottom 2
SYMATTR InstName D14
SYMATTR Value 1N4148
SYMBOL npn 1088 16 R0
SYMATTR InstName Q7
SYMATTR Value BC847B
SYMBOL res 1136 -144 R0
SYMATTR InstName R18
SYMATTR Value 150
SYMBOL res 928 -144 R0
SYMATTR InstName R19
SYMATTR Value 470
SYMBOL diode 1056 0 R270
WINDOW 0 32 32 VTop 2
WINDOW 3 0 32 VBottom 2
SYMATTR InstName D15
SYMATTR Value 1N4148
SYMBOL diode 944 -32 R90
WINDOW 0 0 32 VBottom 2
WINDOW 3 32 32 VTop 2
SYMATTR InstName D16
SYMATTR Value 1N4148
SYMBOL LED 976 0 R270
WINDOW 0 72 32 VTop 2
WINDOW 3 0 32 VBottom 2
SYMATTR InstName D17
SYMATTR Value NSCW100
SYMBOL npn 1456 16 R0
SYMATTR InstName Q8
SYMATTR Value BC847B
SYMBOL res 1504 -144 R0
SYMATTR InstName R20
SYMATTR Value 150
SYMBOL res 1296 -144 R0
SYMATTR InstName R21
SYMATTR Value 470
SYMBOL diode 1424 0 R270
WINDOW 0 32 32 VTop 2
WINDOW 3 0 32 VBottom 2
SYMATTR InstName D18
SYMATTR Value 1N4148
SYMBOL diode 1312 -32 R90
WINDOW 0 0 32 VBottom 2
WINDOW 3 32 32 VTop 2
SYMATTR InstName D19
SYMATTR Value 1N4148
SYMBOL LED 1344 0 R270
WINDOW 0 72 32 VTop 2
WINDOW 3 0 32 VBottom 2
SYMATTR InstName D20
SYMATTR Value NSCW100
SYMBOL npn 1104 -640 R0
SYMATTR InstName Q9
SYMATTR Value BC847B
SYMBOL res 1152 -800 R0
SYMATTR InstName R22
SYMATTR Value 150
SYMBOL res 928 -800 R0
SYMATTR InstName R23
SYMATTR Value 470
SYMBOL schottky 1072 -656 R270
WINDOW 0 32 32 VTop 2
WINDOW 3 0 32 VBottom 2
SYMATTR InstName D21
SYMATTR Value BAT54
SYMATTR Description Diode
SYMATTR Type diode
SYMBOL diode 944 -688 R90
WINDOW 0 0 32 VBottom 2
WINDOW 3 32 32 VTop 2
SYMATTR InstName D22
SYMATTR Value 1N4148
SYMBOL npn 1488 -640 R0
SYMATTR InstName Q10
SYMATTR Value BC847B
SYMBOL res 1536 -800 R0
SYMATTR InstName R24
SYMATTR Value 150
SYMBOL res 1312 -800 R0
SYMATTR InstName R25
SYMATTR Value 470
SYMBOL schottky 1456 -656 R270
WINDOW 0 32 32 VTop 2
WINDOW 3 0 32 VBottom 2
SYMATTR InstName D23
SYMATTR Value BAT54
SYMATTR Description Diode
SYMATTR Type diode
SYMBOL diode 1328 -688 R90
WINDOW 0 0 32 VBottom 2
WINDOW 3 32 32 VTop 2
SYMATTR InstName D24
SYMATTR Value 1N4148
SYMBOL diode 944 -656 R270
WINDOW 0 32 32 VTop 2
WINDOW 3 0 32 VBottom 2
SYMATTR InstName D25
SYMATTR Value 1N4148
SYMBOL diode 1328 -656 R270
WINDOW 0 32 32 VTop 2
WINDOW 3 0 32 VBottom 2
SYMATTR InstName D26
SYMATTR Value 1N4148
SYMBOL diode 1008 -656 R270
WINDOW 0 32 32 VTop 2
WINDOW 3 0 32 VBottom 2
SYMATTR InstName D27
SYMATTR Value 1N4148
SYMBOL diode 1392 -656 R270
WINDOW 0 32 32 VTop 2
WINDOW 3 0 32 VBottom 2
SYMATTR InstName D28
SYMATTR Value 1N4148
SYMBOL npn 1792 16 R0
SYMATTR InstName Q11
SYMATTR Value BC847B
SYMBOL res 1840 -144 R0
SYMATTR InstName R26
SYMATTR Value 150
SYMBOL res 1632 -144 R0
SYMATTR InstName R27
SYMATTR Value 470
SYMBOL diode 1760 0 R270
WINDOW 0 32 32 VTop 2
WINDOW 3 0 32 VBottom 2
SYMATTR InstName D29
SYMATTR Value 1N4148
SYMBOL diode 1648 -32 R90
WINDOW 0 0 32 VBottom 2
WINDOW 3 32 32 VTop 2
SYMATTR InstName D30
SYMATTR Value 1N4148
SYMBOL LED 1680 0 R270
WINDOW 0 72 32 VTop 2
WINDOW 3 0 32 VBottom 2
SYMATTR InstName D31
SYMATTR Value NSCW100
SYMBOL npn 2160 16 R0
SYMATTR InstName Q12
SYMATTR Value BC847B
SYMBOL res 2208 -144 R0
SYMATTR InstName R28
SYMATTR Value 150
SYMBOL res 2000 -144 R0
SYMATTR InstName R29
SYMATTR Value 470
SYMBOL diode 2128 0 R270
WINDOW 0 32 32 VTop 2
WINDOW 3 0 32 VBottom 2
SYMATTR InstName D32
SYMATTR Value 1N4148
SYMBOL diode 2016 -32 R90
WINDOW 0 0 32 VBottom 2
WINDOW 3 32 32 VTop 2
SYMATTR InstName D33
SYMATTR Value 1N4148
SYMBOL LED 2048 0 R270
WINDOW 0 72 32 VTop 2
WINDOW 3 0 32 VBottom 2
SYMATTR InstName D34
SYMATTR Value NSCW100
SYMBOL npn 1808 -640 R0
SYMATTR InstName Q13
SYMATTR Value BC847B
SYMBOL res 1856 -800 R0
SYMATTR InstName R30
SYMATTR Value 150
SYMBOL res 1632 -800 R0
SYMATTR InstName R31
SYMATTR Value 470
SYMBOL schottky 1776 -656 R270
WINDOW 0 32 32 VTop 2
WINDOW 3 0 32 VBottom 2
SYMATTR InstName D35
SYMATTR Value BAT54
SYMATTR Description Diode
SYMATTR Type diode
SYMBOL npn 2192 -640 R0
SYMATTR InstName Q14
SYMATTR Value BC847B
SYMBOL res 2240 -800 R0
SYMATTR InstName R32
SYMATTR Value 150
SYMBOL res 2016 -800 R0
SYMATTR InstName R33
SYMATTR Value 470
SYMBOL schottky 2160 -656 R270
WINDOW 0 32 32 VTop 2
WINDOW 3 0 32 VBottom 2
SYMATTR InstName D37
SYMATTR Value BAT54
SYMATTR Description Diode
SYMATTR Type diode
SYMBOL diode 2032 -688 R90
WINDOW 0 0 32 VBottom 2
WINDOW 3 32 32 VTop 2
SYMATTR InstName D38
SYMATTR Value 1N4148
SYMBOL diode 1648 -656 R270
WINDOW 0 32 32 VTop 2
WINDOW 3 0 32 VBottom 2
SYMATTR InstName D39
SYMATTR Value 1N4148
SYMBOL diode 2032 -656 R270
WINDOW 0 32 32 VTop 2
WINDOW 3 0 32 VBottom 2
SYMATTR InstName D40
SYMATTR Value 1N4148
SYMBOL diode 1712 -656 R270
WINDOW 0 32 32 VTop 2
WINDOW 3 0 32 VBottom 2
SYMATTR InstName D41
SYMATTR Value 1N4148
SYMBOL diode 2096 -656 R270
WINDOW 0 32 32 VTop 2
WINDOW 3 0 32 VBottom 2
SYMATTR InstName D42
SYMATTR Value 1N4148
SYMBOL npn 2512 16 R0
SYMATTR InstName Q15
SYMATTR Value BC847B
SYMBOL res 2560 -144 R0
SYMATTR InstName R34
SYMATTR Value 150
SYMBOL res 2352 -144 R0
SYMATTR InstName R35
SYMATTR Value 470
SYMBOL diode 2480 0 R270
WINDOW 0 32 32 VTop 2
WINDOW 3 0 32 VBottom 2
SYMATTR InstName D43
SYMATTR Value 1N4148
SYMBOL diode 2368 -32 R90
WINDOW 0 0 32 VBottom 2
WINDOW 3 32 32 VTop 2
SYMATTR InstName D44
SYMATTR Value 1N4148
SYMBOL LED 2400 0 R270
WINDOW 0 72 32 VTop 2
WINDOW 3 0 32 VBottom 2
SYMATTR InstName D45
SYMATTR Value NSCW100
SYMBOL npn 2880 16 R0
SYMATTR InstName Q16
SYMATTR Value BC847B
SYMBOL res 2928 -144 R0
SYMATTR InstName R36
SYMATTR Value 150
SYMBOL res 2720 -144 R0
SYMATTR InstName R37
SYMATTR Value 470
SYMBOL diode 2848 0 R270
WINDOW 0 32 32 VTop 2
WINDOW 3 0 32 VBottom 2
SYMATTR InstName D46
SYMATTR Value 1N4148
SYMBOL diode 2736 -32 R90
WINDOW 0 0 32 VBottom 2
WINDOW 3 32 32 VTop 2
SYMATTR InstName D47
SYMATTR Value 1N4148
SYMBOL LED 2768 0 R270
WINDOW 0 72 32 VTop 2
WINDOW 3 0 32 VBottom 2
SYMATTR InstName D48
SYMATTR Value NSCW100
SYMBOL npn 2528 -640 R0
SYMATTR InstName Q17
SYMATTR Value BC847B
SYMBOL res 2576 -800 R0
SYMATTR InstName R38
SYMATTR Value 150
SYMBOL res 2352 -800 R0
SYMATTR InstName R39
SYMATTR Value 470
SYMBOL schottky 2496 -656 R270
WINDOW 0 32 32 VTop 2
WINDOW 3 0 32 VBottom 2
SYMATTR InstName D49
SYMATTR Value BAT54
SYMATTR Description Diode
SYMATTR Type diode
SYMBOL diode 2368 -688 R90
WINDOW 0 0 32 VBottom 2
WINDOW 3 32 32 VTop 2
SYMATTR InstName D50
SYMATTR Value 1N4148
SYMBOL npn 2912 -640 R0
SYMATTR InstName Q18
SYMATTR Value BC847B
SYMBOL res 2960 -800 R0
SYMATTR InstName R40
SYMATTR Value 150
SYMBOL res 2736 -800 R0
SYMATTR InstName R41
SYMATTR Value 470
SYMBOL schottky 2880 -656 R270
WINDOW 0 32 32 VTop 2
WINDOW 3 0 32 VBottom 2
SYMATTR InstName D51
SYMATTR Value BAT54
SYMATTR Description Diode
SYMATTR Type diode
SYMBOL diode 2752 -688 R90
WINDOW 0 0 32 VBottom 2
WINDOW 3 32 32 VTop 2
SYMATTR InstName D52
SYMATTR Value 1N4148
SYMBOL diode 2368 -656 R270
WINDOW 0 32 32 VTop 2
WINDOW 3 0 32 VBottom 2
SYMATTR InstName D53
SYMATTR Value 1N4148
SYMBOL diode 2752 -656 R270
WINDOW 0 32 32 VTop 2
WINDOW 3 0 32 VBottom 2
SYMATTR InstName D54
SYMATTR Value 1N4148
SYMBOL diode 2432 -656 R270
WINDOW 0 32 32 VTop 2
WINDOW 3 0 32 VBottom 2
SYMATTR InstName D55
SYMATTR Value 1N4148
SYMBOL diode 2816 -656 R270
WINDOW 0 32 32 VTop 2
WINDOW 3 0 32 VBottom 2
SYMATTR InstName D56
SYMATTR Value 1N4148
SYMBOL npn 400 -976 R0
SYMATTR InstName Q27
SYMATTR Value BC847B
SYMBOL res 448 -1136 R0
SYMATTR InstName R58
SYMATTR Value 150
SYMBOL res 224 -1136 R0
SYMATTR InstName R59
SYMATTR Value 470
SYMBOL schottky 368 -992 R270
WINDOW 0 32 32 VTop 2
WINDOW 3 0 32 VBottom 2
SYMATTR InstName D81
SYMATTR Value BAT54
SYMATTR Description Diode
SYMATTR Type diode
SYMBOL diode 240 -1024 R90
WINDOW 0 0 32 VBottom 2
WINDOW 3 32 32 VTop 2
SYMATTR InstName D82
SYMATTR Value 1N4148
SYMBOL npn 784 -976 R0
SYMATTR InstName Q28
SYMATTR Value BC847B
SYMBOL res 832 -1136 R0
SYMATTR InstName R60
SYMATTR Value 150
SYMBOL res 608 -1136 R0
SYMATTR InstName R61
SYMATTR Value 470
SYMBOL schottky 752 -992 R270
WINDOW 0 32 32 VTop 2
WINDOW 3 0 32 VBottom 2
SYMATTR InstName D83
SYMATTR Value BAT54
SYMATTR Description Diode
SYMATTR Type diode
SYMBOL diode 624 -1024 R90
WINDOW 0 0 32 VBottom 2
WINDOW 3 32 32 VTop 2
SYMATTR InstName D84
SYMATTR Value 1N4148
SYMBOL npn 1120 -976 R0
SYMATTR InstName Q29
SYMATTR Value BC847B
SYMBOL res 1168 -1136 R0
SYMATTR InstName R62
SYMATTR Value 150
SYMBOL res 944 -1136 R0
SYMATTR InstName R63
SYMATTR Value 470
SYMBOL schottky 1088 -992 R270
WINDOW 0 32 32 VTop 2
WINDOW 3 0 32 VBottom 2
SYMATTR InstName D89
SYMATTR Value BAT54
SYMATTR Description Diode
SYMATTR Type diode
SYMBOL diode 960 -1024 R90
WINDOW 0 0 32 VBottom 2
WINDOW 3 32 32 VTop 2
SYMATTR InstName D90
SYMATTR Value 1N4148
SYMBOL npn 1504 -976 R0
SYMATTR InstName Q30
SYMATTR Value BC847B
SYMBOL res 1552 -1136 R0
SYMATTR InstName R64
SYMATTR Value 150
SYMBOL res 1328 -1136 R0
SYMATTR InstName R65
SYMATTR Value 470
SYMBOL schottky 1472 -992 R270
WINDOW 0 32 32 VTop 2
WINDOW 3 0 32 VBottom 2
SYMATTR InstName D91
SYMATTR Value BAT54
SYMATTR Description Diode
SYMATTR Type diode
SYMBOL diode 1344 -1024 R90
WINDOW 0 0 32 VBottom 2
WINDOW 3 32 32 VTop 2
SYMATTR InstName D92
SYMATTR Value 1N4148
SYMBOL npn 1824 -976 R0
SYMATTR InstName Q31
SYMATTR Value BC847B
SYMBOL res 1872 -1136 R0
SYMATTR InstName R66
SYMATTR Value 150
SYMBOL res 1648 -1136 R0
SYMATTR InstName R67
SYMATTR Value 470
SYMBOL schottky 1792 -992 R270
WINDOW 0 32 32 VTop 2
WINDOW 3 0 32 VBottom 2
SYMATTR InstName D97
SYMATTR Value BAT54
SYMATTR Description Diode
SYMATTR Type diode
SYMBOL diode 1664 -1024 R90
WINDOW 0 0 32 VBottom 2
WINDOW 3 32 32 VTop 2
SYMATTR InstName D98
SYMATTR Value 1N4148
SYMBOL npn 2208 -976 R0
SYMATTR InstName Q32
SYMATTR Value BC847B
SYMBOL res 2256 -1136 R0
SYMATTR InstName R68
SYMATTR Value 150
SYMBOL res 2032 -1136 R0
SYMATTR InstName R69
SYMATTR Value 470
SYMBOL schottky 2176 -992 R270
WINDOW 0 32 32 VTop 2
WINDOW 3 0 32 VBottom 2
SYMATTR InstName D99
SYMATTR Value BAT54
SYMATTR Description Diode
SYMATTR Type diode
SYMBOL diode 2048 -1024 R90
WINDOW 0 0 32 VBottom 2
WINDOW 3 32 32 VTop 2
SYMATTR InstName D100
SYMATTR Value 1N4148
SYMBOL npn 2544 -976 R0
SYMATTR InstName Q33
SYMATTR Value BC847B
SYMBOL res 2592 -1136 R0
SYMATTR InstName R70
SYMATTR Value 150
SYMBOL res 2368 -1136 R0
SYMATTR InstName R71
SYMATTR Value 470
SYMBOL schottky 2512 -992 R270
WINDOW 0 32 32 VTop 2
WINDOW 3 0 32 VBottom 2
SYMATTR InstName D105
SYMATTR Value BAT54
SYMATTR Description Diode
SYMATTR Type diode
SYMBOL diode 2384 -1024 R90
WINDOW 0 0 32 VBottom 2
WINDOW 3 32 32 VTop 2
SYMATTR InstName D106
SYMATTR Value 1N4148
SYMBOL npn 2928 -976 R0
SYMATTR InstName Q34
SYMATTR Value BC847B
SYMBOL res 2976 -1136 R0
SYMATTR InstName R72
SYMATTR Value 150
SYMBOL res 2752 -1136 R0
SYMATTR InstName R73
SYMATTR Value 470
SYMBOL schottky 2896 -992 R270
WINDOW 0 32 32 VTop 2
WINDOW 3 0 32 VBottom 2
SYMATTR InstName D107
SYMATTR Value BAT54
SYMATTR Description Diode
SYMATTR Type diode
SYMBOL diode 2768 -1024 R90
WINDOW 0 0 32 VBottom 2
WINDOW 3 32 32 VTop 2
SYMATTR InstName D108
SYMATTR Value 1N4148
SYMBOL npn 3280 16 R0
SYMATTR InstName Q35
SYMATTR Value BC847B
SYMBOL res 3328 -144 R0
SYMATTR InstName R74
SYMATTR Value 150
SYMBOL res 3120 -144 R0
SYMATTR InstName R75
SYMATTR Value 470
SYMBOL diode 3248 0 R270
WINDOW 0 32 32 VTop 2
WINDOW 3 0 32 VBottom 2
SYMATTR InstName D87
SYMATTR Value 1N4148
SYMBOL diode 3136 -32 R90
WINDOW 0 0 32 VBottom 2
WINDOW 3 32 32 VTop 2
SYMATTR InstName D88
SYMATTR Value 1N4148
SYMBOL LED 3168 0 R270
WINDOW 0 72 32 VTop 2
WINDOW 3 0 32 VBottom 2
SYMATTR InstName D95
SYMATTR Value NSCW100
SYMBOL npn 3648 16 R0
SYMATTR InstName Q36
SYMATTR Value BC847B
SYMBOL res 3696 -144 R0
SYMATTR InstName R76
SYMATTR Value 150
SYMBOL res 3488 -144 R0
SYMATTR InstName R77
SYMATTR Value 470
SYMBOL diode 3616 0 R270
WINDOW 0 32 32 VTop 2
WINDOW 3 0 32 VBottom 2
SYMATTR InstName D96
SYMATTR Value 1N4148
SYMBOL diode 3504 -32 R90
WINDOW 0 0 32 VBottom 2
WINDOW 3 32 32 VTop 2
SYMATTR InstName D103
SYMATTR Value 1N4148
SYMBOL LED 3536 0 R270
WINDOW 0 72 32 VTop 2
WINDOW 3 0 32 VBottom 2
SYMATTR InstName D104
SYMATTR Value NSCW100
SYMBOL npn 3296 -640 R0
SYMATTR InstName Q37
SYMATTR Value BC847B
SYMBOL res 3344 -800 R0
SYMATTR InstName R78
SYMATTR Value 150
SYMBOL res 3120 -800 R0
SYMATTR InstName R79
SYMATTR Value 470
SYMBOL schottky 3264 -656 R270
WINDOW 0 32 32 VTop 2
WINDOW 3 0 32 VBottom 2
SYMATTR InstName D111
SYMATTR Value BAT54
SYMATTR Description Diode
SYMATTR Type diode
SYMBOL diode 3136 -688 R90
WINDOW 0 0 32 VBottom 2
WINDOW 3 32 32 VTop 2
SYMATTR InstName D112
SYMATTR Value 1N4148
SYMBOL npn 3680 -640 R0
SYMATTR InstName Q38
SYMATTR Value BC847B
SYMBOL res 3728 -800 R0
SYMATTR InstName R80
SYMATTR Value 150
SYMBOL res 3504 -800 R0
SYMATTR InstName R81
SYMATTR Value 470
SYMBOL schottky 3648 -656 R270
WINDOW 0 32 32 VTop 2