Version 4
SHEET 1 880 680
WIRE 176 -16 -64 -16
WIRE 176 16 176 -16
WIRE 0 128 -32 128
WIRE 176 128 176 96
WIRE 176 128 64 128
WIRE 208 128 176 128
WIRE 288 128 272 128
WIRE 368 128 352 128
WIRE 384 128 368 128
WIRE 512 128 448 128
WIRE 512 144 512 128
WIRE 592 144 512 144
WIRE 512 160 512 144
WIRE 368 208 368 128
WIRE 448 208 368 208
FLAG 512 256 0
FLAG 592 144 /Q
IOPIN 592 144 Out
FLAG -32 128 I
IOPIN -32 128 In
FLAG -64 64 0
SYMBOL npn 448 160 R0
SYMATTR InstName Q1
SYMATTR Value BC847B
SYMBOL res 160 0 R0
SYMATTR InstName R2
SYMATTR Value 470
SYMBOL schottky 384 144 R270
WINDOW 0 32 32 VTop 2
WINDOW 3 0 32 VBottom 2
SYMATTR InstName D1
SYMATTR Value BAT54
SYMATTR Description Diode
SYMATTR Type diode
SYMBOL diode 64 112 R90
WINDOW 0 0 32 VBottom 2
WINDOW 3 32 32 VTop 2
SYMATTR InstName D2
SYMATTR Value 1N4148
SYMBOL diode 208 112 M90
WINDOW 0 0 32 VBottom 2
WINDOW 3 32 32 VTop 2
SYMATTR InstName D3
SYMATTR Value 1N4148
SYMBOL diode 288 112 M90
WINDOW 0 0 32 VBottom 2
WINDOW 3 32 32 VTop 2
SYMATTR InstName D4
SYMATTR Value 1N4148
SYMBOL voltage -64 -32 R0
SYMATTR InstName V1
SYMATTR Value 3.3
