Version 4
SHEET 1 2448 2400
WIRE 2128 176 2048 176
WIRE 2128 224 2048 224
WIRE 2128 320 2048 320
WIRE 2128 368 2048 368
WIRE 2128 416 2048 416
WIRE 208 464 112 464
WIRE 624 464 528 464
WIRE 1008 464 912 464
WIRE 1424 464 1328 464
WIRE 2128 464 2048 464
WIRE 2128 512 2048 512
WIRE 2128 560 2048 560
WIRE 2128 608 2048 608
WIRE 2128 656 2048 656
WIRE 2128 704 2048 704
WIRE 2128 752 2048 752
WIRE 2128 800 2048 800
WIRE 2128 848 2048 848
WIRE 2128 896 2048 896
WIRE 2128 944 2048 944
WIRE 2128 992 2048 992
WIRE 2128 1040 2048 1040
WIRE 208 1056 112 1056
WIRE 624 1056 528 1056
WIRE 1008 1056 912 1056
WIRE 1424 1056 1328 1056
WIRE 2128 1088 2048 1088
WIRE 2128 1136 2048 1136
WIRE 2128 1184 2048 1184
WIRE 2128 1232 2048 1232
WIRE 2128 1280 2048 1280
WIRE 2128 1328 2048 1328
WIRE 2128 1376 2048 1376
WIRE 2000 1536 1984 1536
WIRE 2336 1552 2320 1552
WIRE 1984 1632 1984 1536
WIRE 2320 1648 2320 1552
WIRE 208 1664 112 1664
WIRE 624 1664 528 1664
WIRE 1008 1664 912 1664
WIRE 1424 1664 1328 1664
WIRE 1984 1824 1984 1712
WIRE 1984 1824 1936 1824
WIRE 2016 1824 1984 1824
WIRE 2096 1824 2080 1824
WIRE 2176 1824 2160 1824
WIRE 2192 1824 2176 1824
WIRE 2320 1824 2320 1728
WIRE 2320 1824 2256 1824
WIRE 2368 1824 2320 1824
WIRE 2320 1856 2320 1824
WIRE 2176 1904 2176 1824
WIRE 2256 1904 2176 1904
WIRE 208 2256 112 2256
WIRE 624 2256 528 2256
WIRE 1008 2256 912 2256
WIRE 1424 2256 1328 2256
FLAG 208 560 V+
FLAG 208 432 RESET
FLAG 208 528 WR
FLAG 208 80 DI0
FLAG 208 112 DI1
FLAG 208 144 DI2
FLAG 208 176 DI3
FLAG 208 208 DI4
FLAG 208 240 DI5
FLAG 208 272 DI6
FLAG 208 304 DI7
FLAG 208 336 DI8
FLAG 208 368 DI9
FLAG 208 400 DI10
FLAG 384 80 DO0
FLAG 384 112 DO1
FLAG 384 144 DO2
FLAG 384 176 DO3
FLAG 384 208 DO4
FLAG 384 240 DO5
FLAG 384 272 DO6
FLAG 384 304 DO7
FLAG 384 336 DO8
FLAG 384 368 DO9
FLAG 384 400 DO10
FLAG 208 1152 V+
FLAG 208 1024 RESET
FLAG 208 1120 WR
FLAG 208 672 DI0
FLAG 208 704 DI1
FLAG 208 736 DI2
FLAG 208 768 DI3
FLAG 208 800 DI4
FLAG 208 832 DI5
FLAG 208 864 DI6
FLAG 208 896 DI7
FLAG 208 928 DI8
FLAG 208 960 DI9
FLAG 208 992 DI10
FLAG 384 672 DO0
FLAG 384 704 DO1
FLAG 384 736 DO2
FLAG 384 768 DO3
FLAG 384 800 DO4
FLAG 384 832 DO5
FLAG 384 864 DO6
FLAG 384 896 DO7
FLAG 384 928 DO8
FLAG 384 960 DO9
FLAG 384 992 DO10
FLAG 208 1760 V+
FLAG 208 1632 RESET
FLAG 208 1728 WR
FLAG 208 1280 DI0
FLAG 208 1312 DI1
FLAG 208 1344 DI2
FLAG 208 1376 DI3
FLAG 208 1408 DI4
FLAG 208 1440 DI5
FLAG 208 1472 DI6
FLAG 208 1504 DI7
FLAG 208 1536 DI8
FLAG 208 1568 DI9
FLAG 208 1600 DI10
FLAG 384 1280 DO0
FLAG 384 1312 DO1
FLAG 384 1344 DO2
FLAG 384 1376 DO3
FLAG 384 1408 DO4
FLAG 384 1440 DO5
FLAG 384 1472 DO6
FLAG 384 1504 DO7
FLAG 384 1536 DO8
FLAG 384 1568 DO9
FLAG 384 1600 DO10
FLAG 208 2352 V+
FLAG 208 2224 RESET
FLAG 208 2320 WR
FLAG 208 1872 DI0
FLAG 208 1904 DI1
FLAG 208 1936 DI2
FLAG 208 1968 DI3
FLAG 208 2000 DI4
FLAG 208 2032 DI5
FLAG 208 2064 DI6
FLAG 208 2096 DI7
FLAG 208 2128 DI8
FLAG 208 2160 DI9
FLAG 208 2192 DI10
FLAG 384 1872 DO0
FLAG 384 1904 DO1
FLAG 384 1936 DO2
FLAG 384 1968 DO3
FLAG 384 2000 DO4
FLAG 384 2032 DO5
FLAG 384 2064 DO6
FLAG 384 2096 DO7
FLAG 384 2128 DO8
FLAG 384 2160 DO9
FLAG 384 2192 DO10
FLAG 624 560 V+
FLAG 624 432 RESET
FLAG 624 528 WR
FLAG 624 80 DI0
FLAG 624 112 DI1
FLAG 624 144 DI2
FLAG 624 176 DI3
FLAG 624 208 DI4
FLAG 624 240 DI5
FLAG 624 272 DI6
FLAG 624 304 DI7
FLAG 624 336 DI8
FLAG 624 368 DI9
FLAG 624 400 DI10
FLAG 800 80 DO0
FLAG 800 112 DO1
FLAG 800 144 DO2
FLAG 800 176 DO3
FLAG 800 208 DO4
FLAG 800 240 DO5
FLAG 800 272 DO6
FLAG 800 304 DO7
FLAG 800 336 DO8
FLAG 800 368 DO9
FLAG 800 400 DO10
FLAG 624 1152 V+
FLAG 624 1024 RESET
FLAG 624 1120 WR
FLAG 624 672 DI0
FLAG 624 704 DI1
FLAG 624 736 DI2
FLAG 624 768 DI3
FLAG 624 800 DI4
FLAG 624 832 DI5
FLAG 624 864 DI6
FLAG 624 896 DI7
FLAG 624 928 DI8
FLAG 624 960 DI9
FLAG 624 992 DI10
FLAG 800 672 DO0
FLAG 800 704 DO1
FLAG 800 736 DO2
FLAG 800 768 DO3
FLAG 800 800 DO4
FLAG 800 832 DO5
FLAG 800 864 DO6
FLAG 800 896 DO7
FLAG 800 928 DO8
FLAG 800 960 DO9
FLAG 800 992 DO10
FLAG 624 1760 V+
FLAG 624 1632 RESET
FLAG 624 1728 WR
FLAG 624 1280 DI0
FLAG 624 1312 DI1
FLAG 624 1344 DI2
FLAG 624 1376 DI3
FLAG 624 1408 DI4
FLAG 624 1440 DI5
FLAG 624 1472 DI6
FLAG 624 1504 DI7
FLAG 624 1536 DI8
FLAG 624 1568 DI9
FLAG 624 1600 DI10
FLAG 800 1280 DO0
FLAG 800 1312 DO1
FLAG 800 1344 DO2
FLAG 800 1376 DO3
FLAG 800 1408 DO4
FLAG 800 1440 DO5
FLAG 800 1472 DO6
FLAG 800 1504 DO7
FLAG 800 1536 DO8
FLAG 800 1568 DO9
FLAG 800 1600 DO10
FLAG 624 2352 V+
FLAG 624 2224 RESET
FLAG 624 2320 WR
FLAG 624 1872 DI0
FLAG 624 1904 DI1
FLAG 624 1936 DI2
FLAG 624 1968 DI3
FLAG 624 2000 DI4
FLAG 624 2032 DI5
FLAG 624 2064 DI6
FLAG 624 2096 DI7
FLAG 624 2128 DI8
FLAG 624 2160 DI9
FLAG 624 2192 DI10
FLAG 800 1872 DO0
FLAG 800 1904 DO1
FLAG 800 1936 DO2
FLAG 800 1968 DO3
FLAG 800 2000 DO4
FLAG 800 2032 DO5
FLAG 800 2064 DO6
FLAG 800 2096 DO7
FLAG 800 2128 DO8
FLAG 800 2160 DO9
FLAG 800 2192 DO10
FLAG 1008 560 V+
FLAG 1008 432 RESET
FLAG 1008 528 WR
FLAG 1008 80 DI0
FLAG 1008 112 DI1
FLAG 1008 144 DI2
FLAG 1008 176 DI3
FLAG 1008 208 DI4
FLAG 1008 240 DI5
FLAG 1008 272 DI6
FLAG 1008 304 DI7
FLAG 1008 336 DI8
FLAG 1008 368 DI9
FLAG 1008 400 DI10
FLAG 1184 80 DO0
FLAG 1184 112 DO1
FLAG 1184 144 DO2
FLAG 1184 176 DO3
FLAG 1184 208 DO4
FLAG 1184 240 DO5
FLAG 1184 272 DO6
FLAG 1184 304 DO7
FLAG 1184 336 DO8
FLAG 1184 368 DO9
FLAG 1184 400 DO10
FLAG 1008 1152 V+
FLAG 1008 1024 RESET
FLAG 1008 1120 WR
FLAG 1008 672 DI0
FLAG 1008 704 DI1
FLAG 1008 736 DI2
FLAG 1008 768 DI3
FLAG 1008 800 DI4
FLAG 1008 832 DI5
FLAG 1008 864 DI6
FLAG 1008 896 DI7
FLAG 1008 928 DI8
FLAG 1008 960 DI9
FLAG 1008 992 DI10
FLAG 1184 672 DO0
FLAG 1184 704 DO1
FLAG 1184 736 DO2
FLAG 1184 768 DO3
FLAG 1184 800 DO4
FLAG 1184 832 DO5
FLAG 1184 864 DO6
FLAG 1184 896 DO7
FLAG 1184 928 DO8
FLAG 1184 960 DO9
FLAG 1184 992 DO10
FLAG 1008 1760 V+
FLAG 1008 1632 RESET
FLAG 1008 1728 WR
FLAG 1008 1280 DI0
FLAG 1008 1312 DI1
FLAG 1008 1344 DI2
FLAG 1008 1376 DI3
FLAG 1008 1408 DI4
FLAG 1008 1440 DI5
FLAG 1008 1472 DI6
FLAG 1008 1504 DI7
FLAG 1008 1536 DI8
FLAG 1008 1568 DI9
FLAG 1008 1600 DI10
FLAG 1184 1280 DO0
FLAG 1184 1312 DO1
FLAG 1184 1344 DO2
FLAG 1184 1376 DO3
FLAG 1184 1408 DO4
FLAG 1184 1440 DO5
FLAG 1184 1472 DO6
FLAG 1184 1504 DO7
FLAG 1184 1536 DO8
FLAG 1184 1568 DO9
FLAG 1184 1600 DO10
FLAG 1008 2352 V+
FLAG 1008 2224 RESET
FLAG 1008 2320 WR
FLAG 1008 1872 DI0
FLAG 1008 1904 DI1
FLAG 1008 1936 DI2
FLAG 1008 1968 DI3
FLAG 1008 2000 DI4
FLAG 1008 2032 DI5
FLAG 1008 2064 DI6
FLAG 1008 2096 DI7
FLAG 1008 2128 DI8
FLAG 1008 2160 DI9
FLAG 1008 2192 DI10
FLAG 1184 1872 DO0
FLAG 1184 1904 DO1
FLAG 1184 1936 DO2
FLAG 1184 1968 DO3
FLAG 1184 2000 DO4
FLAG 1184 2032 DO5
FLAG 1184 2064 DO6
FLAG 1184 2096 DO7
FLAG 1184 2128 DO8
FLAG 1184 2160 DO9
FLAG 1184 2192 DO10
FLAG 1424 560 V+
FLAG 1424 432 RESET
FLAG 1424 528 WR
FLAG 1424 80 DI0
FLAG 1424 112 DI1
FLAG 1424 144 DI2
FLAG 1424 176 DI3
FLAG 1424 208 DI4
FLAG 1424 240 DI5
FLAG 1424 272 DI6
FLAG 1424 304 DI7
FLAG 1424 336 DI8
FLAG 1424 368 DI9
FLAG 1424 400 DI10
FLAG 1600 80 DO0
FLAG 1600 112 DO1
FLAG 1600 144 DO2
FLAG 1600 176 DO3
FLAG 1600 208 DO4
FLAG 1600 240 DO5
FLAG 1600 272 DO6
FLAG 1600 304 DO7
FLAG 1600 336 DO8
FLAG 1600 368 DO9
FLAG 1600 400 DO10
FLAG 1424 1152 V+
FLAG 1424 1024 RESET
FLAG 1424 1120 WR
FLAG 1424 672 DI0
FLAG 1424 704 DI1
FLAG 1424 736 DI2
FLAG 1424 768 DI3
FLAG 1424 800 DI4
FLAG 1424 832 DI5
FLAG 1424 864 DI6
FLAG 1424 896 DI7
FLAG 1424 928 DI8
FLAG 1424 960 DI9
FLAG 1424 992 DI10
FLAG 1600 672 DO0
FLAG 1600 704 DO1
FLAG 1600 736 DO2
FLAG 1600 768 DO3
FLAG 1600 800 DO4
FLAG 1600 832 DO5
FLAG 1600 864 DO6
FLAG 1600 896 DO7
FLAG 1600 928 DO8
FLAG 1600 960 DO9
FLAG 1600 992 DO10
FLAG 1424 1760 V+
FLAG 1424 1632 RESET
FLAG 1424 1728 WR
FLAG 1424 1280 DI0
FLAG 1424 1312 DI1
FLAG 1424 1344 DI2
FLAG 1424 1376 DI3
FLAG 1424 1408 DI4
FLAG 1424 1440 DI5
FLAG 1424 1472 DI6
FLAG 1424 1504 DI7
FLAG 1424 1536 DI8
FLAG 1424 1568 DI9
FLAG 1424 1600 DI10
FLAG 1600 1280 DO0
FLAG 1600 1312 DO1
FLAG 1600 1344 DO2
FLAG 1600 1376 DO3
FLAG 1600 1408 DO4
FLAG 1600 1440 DO5
FLAG 1600 1472 DO6
FLAG 1600 1504 DO7
FLAG 1600 1536 DO8
FLAG 1600 1568 DO9
FLAG 1600 1600 DO10
FLAG 1424 2352 V+
FLAG 1424 2224 RESET
FLAG 1424 2320 WR
FLAG 1424 1872 DI0
FLAG 1424 1904 DI1
FLAG 1424 1936 DI2
FLAG 1424 1968 DI3
FLAG 1424 2000 DI4
FLAG 1424 2032 DI5
FLAG 1424 2064 DI6
FLAG 1424 2096 DI7
FLAG 1424 2128 DI8
FLAG 1424 2160 DI9
FLAG 1424 2192 DI10
FLAG 1600 1872 DO0
FLAG 1600 1904 DO1
FLAG 1600 1936 DO2
FLAG 1600 1968 DO3
FLAG 1600 2000 DO4
FLAG 1600 2032 DO5
FLAG 1600 2064 DO6
FLAG 1600 2096 DO7
FLAG 1600 2128 DO8
FLAG 1600 2160 DO9
FLAG 1600 2192 DO10
FLAG 2048 176 V+
FLAG 2128 176 V+
IOPIN 2128 176 In
FLAG 2048 224 RESET
FLAG 2128 224 RESET
IOPIN 2128 224 In
FLAG 1872 1824 RD
IOPIN 1872 1824 In
FLAG 2048 320 WR
FLAG 2128 320 WR
IOPIN 2128 320 In
FLAG 2048 368 DO0
IOPIN 2048 368 Out
FLAG 2128 368 DO0
FLAG 2048 416 DO1
IOPIN 2048 416 Out
FLAG 2128 416 DO1
FLAG 2048 464 DO2
IOPIN 2048 464 Out
FLAG 2128 464 DO2
FLAG 2048 512 DO3
IOPIN 2048 512 Out
FLAG 2128 512 DO3
FLAG 2048 560 DO4
IOPIN 2048 560 Out
FLAG 2128 560 DO4
FLAG 2048 608 DO5
IOPIN 2048 608 Out
FLAG 2128 608 DO5
FLAG 2048 656 DO6
IOPIN 2048 656 Out
FLAG 2128 656 DO6
FLAG 2048 704 DO7
IOPIN 2048 704 Out
FLAG 2128 704 DO7
FLAG 2048 752 DO8
IOPIN 2048 752 Out
FLAG 2128 752 DO8
FLAG 2048 800 DO9
IOPIN 2048 800 Out
FLAG 2128 800 DO9
FLAG 2048 848 DO10
IOPIN 2048 848 Out
FLAG 2128 848 DO10
FLAG 2048 896 DI0
FLAG 2128 896 DI0
IOPIN 2128 896 In
FLAG 2048 944 DI1
FLAG 2128 944 DI1
IOPIN 2128 944 In
FLAG 2048 992 DI2
FLAG 2128 992 DI2
IOPIN 2128 992 In
FLAG 2048 1040 Di3
FLAG 2128 1040 DI3
IOPIN 2128 1040 In
FLAG 2048 1088 Di4
FLAG 2128 1088 DI4
IOPIN 2128 1088 In
FLAG 2048 1136 DI5
FLAG 2128 1136 DI5
IOPIN 2128 1136 In
FLAG 2048 1184 DI6
FLAG 2128 1184 DI6
IOPIN 2128 1184 In
FLAG 2048 1232 DI7
FLAG 2128 1232 DI7
IOPIN 2128 1232 In
FLAG 2048 1280 DI8
FLAG 2128 1280 DI8
IOPIN 2128 1280 In
FLAG 2048 1328 DI9
FLAG 2128 1328 DI9
IOPIN 2128 1328 In
FLAG 2048 1376 DI10
FLAG 2128 1376 DI10
IOPIN 2128 1376 In
FLAG 112 464 SEL0
IOPIN 112 464 In
FLAG 112 1056 SEL1
IOPIN 112 1056 In
FLAG 112 1664 SEL2
IOPIN 112 1664 In
FLAG 528 464 SEL4
IOPIN 528 464 In
FLAG 912 464 SEL8
IOPIN 912 464 In
FLAG 1328 464 SEL12
IOPIN 1328 464 In
FLAG 1328 1056 SEL13
IOPIN 1328 1056 In
FLAG 912 1056 SEL9
IOPIN 912 1056 In
FLAG 528 1056 SEL5
IOPIN 528 1056 In
FLAG 528 1664 SEL6
IOPIN 528 1664 In
FLAG 912 1664 SEL10
IOPIN 912 1664 In
FLAG 1328 1664 SEL14
IOPIN 1328 1664 In
FLAG 1328 2256 SEL15
IOPIN 1328 2256 In
FLAG 912 2256 SEL11
IOPIN 912 2256 In
FLAG 528 2256 SEL7
IOPIN 528 2256 In
FLAG 112 2256 SEL3
IOPIN 112 2256 In
FLAG 208 496 IRD
FLAG 624 496 IRD
FLAG 1008 496 IRD
FLAG 1424 496 IRD
FLAG 1424 1088 IRD
FLAG 1008 1088 IRD
FLAG 624 1088 IRD
FLAG 208 1088 IRD
FLAG 1424 2288 IRD
FLAG 1008 2288 IRD
FLAG 624 2288 IRD
FLAG 208 2288 IRD
FLAG 208 1696 IRD
FLAG 624 1696 IRD
FLAG 1008 1696 IRD
FLAG 1424 1696 IRD
FLAG 2320 1952 0
FLAG 2000 1536 V+
IOPIN 2000 1536 In
FLAG 2336 1552 V+
IOPIN 2336 1552 In
FLAG 2368 1824 IRD
SYMBOL PMemWord 288 320 R0
SYMATTR InstName WORD0
SYMBOL PMemWord 288 912 R0
SYMATTR InstName WORD1
SYMBOL PMemWord 288 1520 R0
SYMATTR InstName WORD2
SYMBOL PMemWord 288 2112 R0
SYMATTR InstName WORD3
SYMBOL PMemWord 704 320 R0
SYMATTR InstName WORD4
SYMBOL PMemWord 704 912 R0
SYMATTR InstName WORD5
SYMBOL PMemWord 704 1520 R0
SYMATTR InstName WORD6
SYMBOL PMemWord 704 2112 R0
SYMATTR InstName WORD7
SYMBOL PMemWord 1088 320 R0
SYMATTR InstName WORD8
SYMBOL PMemWord 1088 912 R0
SYMATTR InstName WORD9
SYMBOL PMemWord 1088 1520 R0
SYMATTR InstName WORD10
SYMBOL PMemWord 1088 2112 R0
SYMATTR InstName WORD11
SYMBOL PMemWord 1504 320 R0
SYMATTR InstName WORD12
SYMBOL PMemWord 1504 912 R0
SYMATTR InstName WORD13
SYMBOL PMemWord 1504 1520 R0
SYMATTR InstName WORD14
SYMBOL PMemWord 1504 2112 R0
SYMATTR InstName WORD15
SYMBOL npn 2256 1856 R0
SYMATTR InstName Q1
SYMATTR Value BC847B
SYMBOL schottky 2192 1840 R270
WINDOW 0 32 32 VTop 2
WINDOW 3 0 32 VBottom 2
SYMATTR InstName D1
SYMATTR Value BAT54
SYMATTR Description Diode
SYMATTR Type diode
SYMBOL diode 1936 1840 M270
WINDOW 0 32 32 VTop 2
WINDOW 3 0 32 VBottom 2
SYMATTR InstName D3
SYMATTR Value 1N4148
SYMBOL res 1968 1616 R0
SYMATTR InstName R1
SYMATTR Value 470
SYMBOL diode 2016 1808 M90
WINDOW 0 0 32 VBottom 2
WINDOW 3 32 32 VTop 2
SYMATTR InstName D4
SYMATTR Value 1N4148
SYMBOL diode 2096 1808 M90
WINDOW 0 0 32 VBottom 2
WINDOW 3 32 32 VTop 2
SYMATTR InstName D5
SYMATTR Value 1N4148
SYMBOL res 2304 1632 R0
SYMATTR InstName R2
SYMATTR Value 150
